

        *** GPGPU-Sim Simulator Version 4.0.0  [build gpgpu-sim_git-commit-_modified_] ***


GPGPU-Sim PTX: simulation mode 0 (can change with PTX_SIM_MODE_FUNC environment variable:
               1=functional simulation only, 0=detailed performance simulator)
GPGPU-Sim: Configuration options:

-save_embedded_ptx                      0 # saves ptx files embedded in binary as <n>.ptx
-keep                                   0 # keep intermediate files created by GPGPU-Sim when interfacing with external programs
-gpgpu_ptx_save_converted_ptxplus                    0 # Saved converted ptxplus to a file
-gpgpu_occupancy_sm_number                   70 # The SM number to pass to ptxas when getting register usage for computing GPU occupancy. This parameter is required in the config.
-ptx_opcode_latency_int         4,13,4,5,145 # Opcode latencies for integers <ADD,MAX,MUL,MAD,DIV>Default 1,1,19,25,145
-ptx_opcode_latency_fp          4,13,4,5,39 # Opcode latencies for single precision floating points <ADD,MAX,MUL,MAD,DIV>Default 1,1,1,1,30
-ptx_opcode_latency_dp         8,19,8,8,330 # Opcode latencies for double precision floating points <ADD,MAX,MUL,MAD,DIV>Default 8,8,8,8,335
-ptx_opcode_latency_sfu                  100 # Opcode latencies for SFU instructionsDefault 8
-ptx_opcode_latency_tesnor                   64 # Opcode latencies for Tensor instructionsDefault 64
-ptx_opcode_initiation_int            2,2,2,2,8 # Opcode initiation intervals for integers <ADD,MAX,MUL,MAD,DIV>Default 1,1,4,4,32
-ptx_opcode_initiation_fp            2,2,2,2,4 # Opcode initiation intervals for single precision floating points <ADD,MAX,MUL,MAD,DIV>Default 1,1,1,1,5
-ptx_opcode_initiation_dp          4,4,4,4,130 # Opcode initiation intervals for double precision floating points <ADD,MAX,MUL,MAD,DIV>Default 8,8,8,8,130
-ptx_opcode_initiation_sfu                    8 # Opcode initiation intervals for sfu instructionsDefault 8
-ptx_opcode_initiation_tensor                   64 # Opcode initiation intervals for tensor instructionsDefault 64
-cdp_latency         7200,8000,100,12000,1600 # CDP API latency <cudaStreamCreateWithFlags, cudaGetParameterBufferV2_init_perWarp, cudaGetParameterBufferV2_perKernel, cudaLaunchDeviceV2_init_perWarp, cudaLaunchDevicV2_perKernel>Default 7200,8000,100,12000,1600
-network_mode                           1 # Interconnection network mode
-inter_config_file   config_volta_islip.icnt # Interconnection network config file
-inct_in_buffer_limit                   64 # in_buffer_limit
-inct_out_buffer_limit                   64 # out_buffer_limit
-inct_subnets                           2 # subnets
-gpgpu_ptx_use_cuobjdump                    1 # Use cuobjdump to extract ptx and sass from binaries
-gpgpu_experimental_lib_support                    0 # Try to extract code from cuda libraries [Broken because of unknown cudaGetExportTable]
-checkpoint_option                      0 #  checkpointing flag (0 = no checkpoint)
-checkpoint_kernel                      1 #  checkpointing during execution of which kernel (1- 1st kernel)
-checkpoint_CTA                         0 #  checkpointing after # of CTA (< less than total CTA)
-resume_option                          0 #  resume flag (0 = no resume)
-resume_kernel                          0 #  Resume from which kernel (1= 1st kernel)
-resume_CTA                             0 #  resume from which CTA 
-checkpoint_CTA_t                       0 #  resume from which CTA 
-checkpoint_insn_Y                      0 #  resume from which CTA 
-gpgpu_ptx_convert_to_ptxplus                    0 # Convert SASS (native ISA) to ptxplus and run ptxplus
-gpgpu_ptx_force_max_capability                   70 # Force maximum compute capability
-gpgpu_ptx_inst_debug_to_file                    0 # Dump executed instructions' debug information to file
-gpgpu_ptx_inst_debug_file       inst_debug.txt # Executed instructions' debug output file
-gpgpu_ptx_inst_debug_thread_uid                    1 # Thread UID for executed instructions' debug output
-gpgpu_simd_model                       1 # 1 = post-dominator
-gpgpu_shader_core_pipeline              2048:32 # shader core pipeline config, i.e., {<nthread>:<warpsize>}
-gpgpu_tex_cache:l1  N:16:128:24,L:R:m:N:L,T:128:4,128:2 # per-shader L1 texture cache  (READ-ONLY) config  {<nsets>:<bsize>:<assoc>,<rep>:<wr>:<alloc>:<wr_alloc>,<mshr>:<N>:<merge>,<mq>:<rf>}
-gpgpu_const_cache:l1 N:128:64:8,L:R:f:N:L,S:2:64,4 # per-shader L1 constant memory cache  (READ-ONLY) config  {<nsets>:<bsize>:<assoc>,<rep>:<wr>:<alloc>:<wr_alloc>,<mshr>:<N>:<merge>,<mq>} 
-gpgpu_cache:il1     N:64:128:16,L:R:f:N:L,S:2:48,4 # shader L1 instruction cache config  {<nsets>:<bsize>:<assoc>,<rep>:<wr>:<alloc>:<wr_alloc>,<mshr>:<N>:<merge>,<mq>} 
-gpgpu_cache:dl1     S:4:128:64,L:L:s:N:L,A:256:8,16:0,32 # per-shader L1 data cache config  {<nsets>:<bsize>:<assoc>,<rep>:<wr>:<alloc>:<wr_alloc>,<mshr>:<N>:<merge>,<mq> | none}
-l1_latency                            28 # L1 Hit Latency
-gpgpu_cache:tlb              1:8:128:L:m # per-shader tlb config  {<nsets>:<bsize>:<assoc>:<wr>:<alloc> | none}
-tlb_latency                           20 # TLB Miss Latency
-smem_latency                          19 # smem Latency
-gpgpu_cache:dl1PrefL1                 none # per-shader L1 data cache config  {<nsets>:<bsize>:<assoc>,<rep>:<wr>:<alloc>:<wr_alloc>,<mshr>:<N>:<merge>,<mq> | none}
-gpgpu_cache:dl1PrefShared                 none # per-shader L1 data cache config  {<nsets>:<bsize>:<assoc>,<rep>:<wr>:<alloc>:<wr_alloc>,<mshr>:<N>:<merge>,<mq> | none}
-gmem_skip_L1D                          0 # global memory access skip L1D cache (implements -Xptxas -dlcm=cg, default=no skip)
-gpgpu_perfect_mem                      0 # enable perfect memory mode (no cache miss)
-n_regfile_gating_group                    4 # group of lanes that should be read/written together)
-gpgpu_clock_gated_reg_file                    0 # enable clock gated reg file for power calculations
-gpgpu_clock_gated_lanes                    0 # enable clock gated lanes for power calculations
-gpgpu_shader_registers                65536 # Number of registers per shader core. Limits number of concurrent CTAs. (default 8192)
-gpgpu_registers_per_block                 8192 # Maximum number of registers per CTA. (default 8192)
-gpgpu_ignore_resources_limitation                    0 # gpgpu_ignore_resources_limitation (default 0)
-gpgpu_shader_cta                      32 # Maximum number of concurrent CTAs in shader (default 8)
-gpgpu_num_cta_barriers                   16 # Maximum number of named barriers per CTA (default 16)
-gpgpu_n_clusters                      40 # number of processing clusters
-gpgpu_n_cores_per_cluster                    2 # number of simd cores per cluster
-gpgpu_n_cluster_ejection_buffer_size                   32 # number of packets in ejection buffer
-gpgpu_n_ldst_response_buffer_size                    2 # number of response packets in ld/st unit ejection buffer
-gpgpu_shmem_per_block                49152 # Size of shared memory per thread block or CTA (default 48kB)
-gpgpu_shmem_size                   16384 # Size of shared memory per shader core (default 16kB)
-adaptive_volta_cache_config                    1 # adaptive_volta_cache_config
-gpgpu_shmem_size                   98304 # Size of shared memory per shader core (default 16kB)
-gpgpu_shmem_size_PrefL1                16384 # Size of shared memory per shader core (default 16kB)
-gpgpu_shmem_size_PrefShared                16384 # Size of shared memory per shader core (default 16kB)
-gpgpu_shmem_num_banks                   32 # Number of banks in the shared memory in each shader core (default 16)
-gpgpu_shmem_limited_broadcast                    0 # Limit shared memory to do one broadcast per cycle (default on)
-gpgpu_shmem_warp_parts                    1 # Number of portions a warp is divided into for shared memory bank conflict check 
-mem_unit_ports                         4 # The number of memory transactions allowed per core cycle
-gpgpu_shmem_warp_parts                    1 # Number of portions a warp is divided into for shared memory bank conflict check 
-gpgpu_warpdistro_shader                   -1 # Specify which shader core to collect the warp size distribution from
-gpgpu_warp_issue_shader                    0 # Specify which shader core to collect the warp issue distribution from
-gpgpu_local_mem_map                    1 # Mapping from local memory space address to simulated GPU physical address space (default = enabled)
-gpgpu_num_reg_banks                    8 # Number of register banks (default = 8)
-gpgpu_reg_bank_use_warp_id                    0 # Use warp ID in mapping registers to banks (default = off)
-sub_core_model                         1 # Sub Core Volta/Pascal model (default = off)
-enable_specialized_operand_collector                    0 # enable_specialized_operand_collector
-gpgpu_operand_collector_num_units_sp                    4 # number of collector units (default = 4)
-gpgpu_operand_collector_num_units_dp                    0 # number of collector units (default = 0)
-gpgpu_operand_collector_num_units_sfu                    4 # number of collector units (default = 4)
-gpgpu_operand_collector_num_units_int                    0 # number of collector units (default = 0)
-gpgpu_operand_collector_num_units_tensor_core                    4 # number of collector units (default = 4)
-gpgpu_operand_collector_num_units_mem                    2 # number of collector units (default = 2)
-gpgpu_operand_collector_num_units_gen                    8 # number of collector units (default = 0)
-gpgpu_operand_collector_num_in_ports_sp                    1 # number of collector unit in ports (default = 1)
-gpgpu_operand_collector_num_in_ports_dp                    0 # number of collector unit in ports (default = 0)
-gpgpu_operand_collector_num_in_ports_sfu                    1 # number of collector unit in ports (default = 1)
-gpgpu_operand_collector_num_in_ports_int                    0 # number of collector unit in ports (default = 0)
-gpgpu_operand_collector_num_in_ports_tensor_core                    1 # number of collector unit in ports (default = 1)
-gpgpu_operand_collector_num_in_ports_mem                    1 # number of collector unit in ports (default = 1)
-gpgpu_operand_collector_num_in_ports_gen                    8 # number of collector unit in ports (default = 0)
-gpgpu_operand_collector_num_out_ports_sp                    1 # number of collector unit in ports (default = 1)
-gpgpu_operand_collector_num_out_ports_dp                    0 # number of collector unit in ports (default = 0)
-gpgpu_operand_collector_num_out_ports_sfu                    1 # number of collector unit in ports (default = 1)
-gpgpu_operand_collector_num_out_ports_int                    0 # number of collector unit in ports (default = 0)
-gpgpu_operand_collector_num_out_ports_tensor_core                    1 # number of collector unit in ports (default = 1)
-gpgpu_operand_collector_num_out_ports_mem                    1 # number of collector unit in ports (default = 1)
-gpgpu_operand_collector_num_out_ports_gen                    8 # number of collector unit in ports (default = 0)
-gpgpu_coalesce_arch                   60 # Coalescing arch (GT200 = 13, Fermi = 20)
-gpgpu_num_sched_per_core                    4 # Number of warp schedulers per core
-gpgpu_max_insn_issue_per_warp                    1 # Max number of instructions that can be issued per warp in one cycle by scheduler (either 1 or 2)
-gpgpu_dual_issue_diff_exec_units                    1 # should dual issue use two different execution unit resources (Default = 1)
-gpgpu_simt_core_sim_order                    1 # Select the simulation order of cores in a cluster (0=Fix, 1=Round-Robin)
-gpgpu_pipeline_widths 4,4,4,4,4,4,4,4,4,4,8,4,4 # Pipeline widths ID_OC_SP,ID_OC_DP,ID_OC_INT,ID_OC_SFU,ID_OC_MEM,OC_EX_SP,OC_EX_DP,OC_EX_INT,OC_EX_SFU,OC_EX_MEM,EX_WB,ID_OC_TENSOR_CORE,OC_EX_TENSOR_CORE
-gpgpu_tensor_core_avail                    1 # Tensor Core Available (default=0)
-gpgpu_num_sp_units                     4 # Number of SP units (default=1)
-gpgpu_num_dp_units                     4 # Number of DP units (default=0)
-gpgpu_num_int_units                    4 # Number of INT units (default=0)
-gpgpu_num_sfu_units                    4 # Number of SF units (default=1)
-gpgpu_num_tensor_core_units                    4 # Number of tensor_core units (default=1)
-gpgpu_num_mem_units                    1 # Number if ldst units (default=1) WARNING: not hooked up to anything
-gpgpu_scheduler                      gto # Scheduler configuration: < lrr | gto | two_level_active > If two_level_active:<num_active_warps>:<inner_prioritization>:<outer_prioritization>For complete list of prioritization values see shader.h enum scheduler_prioritization_typeDefault: gto
-gpgpu_concurrent_kernel_sm                    0 # Support concurrent kernels on a SM (default = disabled)
-perf_sim_memcpy                        1 # Fill the L2 cache on memcpy
-gpgpu_dram_scheduler                    1 # 0 = fifo, 1 = FR-FCFS (defaul)
-gpgpu_dram_partition_queues          64:64:64:64 # i2$:$2d:d2$:$2i
-l2_ideal                               0 # Use a ideal L2 cache that always hit
-gpgpu_cache:dl2     S:32:128:24,L:B:m:L:L,A:192:4,32:0,32 # unified banked L2 data cache config  {<nsets>:<bsize>:<assoc>,<rep>:<wr>:<alloc>:<wr_alloc>,<mshr>:<N>:<merge>,<mq>}
-gpgpu_cache:dl2_texture_only                    0 # L2 cache used for texture only
-gpgpu_n_mem                           24 # number of memory modules (e.g. memory controllers) in gpu
-gpgpu_n_sub_partition_per_mchannel                    2 # number of memory subpartition in each memory module
-gpgpu_n_mem_per_ctrlr                    1 # number of memory chips per memory controller
-gpgpu_memlatency_stat                   14 # track and display latency statistics 0x2 enables MC, 0x4 enables queue logs
-gpgpu_frfcfs_dram_sched_queue_size                   64 # 0 = unlimited (default); # entries per chip
-gpgpu_dram_return_queue_size                  192 # 0 = unlimited (default); # entries per chip
-gpgpu_dram_buswidth                   16 # default = 4 bytes (8 bytes per cycle at DDR)
-gpgpu_dram_burst_length                    2 # Burst length of each DRAM request (default = 4 data bus cycle)
-dram_data_command_freq_ratio                    2 # Frequency ratio between DRAM data bus and command bus (default = 2 times, i.e. DDR)
-gpgpu_dram_timing_opt nbk=16:CCD=1:RRD=3:RCD=12:RAS=28:RP=12:RC=40: CL=12:WL=2:CDLR=3:WR=10:nbkgrp=4:CCDL=2:RTPL=3 # DRAM timing parameters = {nbk:tCCD:tRRD:tRCD:tRAS:tRP:tRC:CL:WL:tCDLR:tWR:nbkgrp:tCCDL:tRTPL}
-rop_latency                          120 # ROP queue latency (default 85)
-dram_latency                         100 # DRAM latency (default 30)
-dual_bus_interface                     1 # dual_bus_interface (default = 0) 
-dram_bnk_indexing_policy                    0 # dram_bnk_indexing_policy (0 = normal indexing, 1 = Xoring with the higher bits) (Default = 0)
-dram_bnkgrp_indexing_policy                    1 # dram_bnkgrp_indexing_policy (0 = take higher bits, 1 = take lower bits) (Default = 0)
-Seperate_Write_Queue_Enable                    0 # Seperate_Write_Queue_Enable
-Write_Queue_Size                32:28:16 # Write_Queue_Size
-Elimnate_rw_turnaround                    0 # elimnate_rw_turnaround i.e set tWTR and tRTW = 0
-icnt_flit_size                        40 # icnt_flit_size
-gpgpu_mem_addr_mapping dramid@8;00000000.00000000.00000000.00000000.0000RRRR.RRRRRRRR.RBBBCCCB.CCCSSSSS # mapping memory address to dram model {dramid@<start bit>;<memory address map>}
-gpgpu_mem_addr_test                    0 # run sweep test to check address mapping for aliased address
-gpgpu_mem_address_mask                    1 # 0 = old addressing mask, 1 = new addressing mask, 2 = new add. mask + flipped bank sel and chip sel bits
-memory_partition_indexing                    0 # 0 = no indexing, 1 = bitwise xoring, 2 = IPoly, 3 = custom indexing
-gpuwattch_xml_file         gpuwattch.xml # GPUWattch XML file
-power_simulation_enabled                    0 # Turn on power simulator (1=On, 0=Off)
-power_per_cycle_dump                    0 # Dump detailed power output each cycle
-power_trace_enabled                    0 # produce a file for the power trace (1=On, 0=Off)
-power_trace_zlevel                     6 # Compression level of the power trace output log (0=no comp, 9=highest)
-steady_power_levels_enabled                    0 # produce a file for the steady power levels (1=On, 0=Off)
-steady_state_definition                  8:4 # allowed deviation:number of samples
-gpgpu_max_cycle                        0 # terminates gpu simulation early (0 = no limit)
-gpgpu_max_insn                         0 # terminates gpu simulation early (0 = no limit)
-gpgpu_max_cta                          0 # terminates gpu simulation early (0 = no limit)
-gpgpu_runtime_stat                   500 # display runtime statistics such as dram utilization {<freq>:<flag>}
-liveness_message_freq                    1 # Minimum number of seconds between simulation liveness messages (0 = always print)
-gpgpu_compute_capability_major                    7 # Major compute capability version number
-gpgpu_compute_capability_minor                    0 # Minor compute capability version number
-gpgpu_flush_l1_cache                    1 # Flush L1 cache at the end of each kernel call
-gpgpu_flush_l2_cache                    0 # Flush L2 cache at the end of each kernel call
-gpgpu_deadlock_detect                    1 # Stop the simulation at deadlock (1=on (default), 0=off)
-gpgpu_ptx_instruction_classification                    0 # if enabled will classify ptx instruction types per kernel (Max 255 kernels now)
-gpgpu_ptx_sim_mode                     0 # Select between Performance (default) or Functional simulation (1)
-gpgpu_clock_domains 1200.0:1200.0:1200.0:850.0 # Clock Domain Frequencies in MhZ {<Core Clock>:<ICNT Clock>:<L2 Clock>:<DRAM Clock>}
-gpgpu_max_concurrent_kernel                    8 # maximum kernels that can run concurrently on GPU
-gpgpu_cflog_interval                    0 # Interval between each snapshot in control flow logger
-visualizer_enabled                     0 # Turn on visualizer output (1=On, 0=Off)
-visualizer_outputfile                 NULL # Specifies the output log file for visualizer
-visualizer_zlevel                      6 # Compression level of the visualizer output log (0=no comp, 9=highest)
-gpgpu_stack_size_limit                 1024 # GPU thread stack size
-gpgpu_heap_size_limit              8388608 # GPU malloc heap size 
-gpgpu_runtime_sync_depth_limit                    2 # GPU device runtime synchronize depth
-gpgpu_runtime_pending_launch_count_limit                 2048 # GPU device runtime pending launch count
-trace_enabled                          0 # Turn on traces
-trace_components                    none # comma seperated list of traces to enable. Complete list found in trace_streams.tup. Default none
-trace_sampling_core                    0 # The core which is printed using CORE_DPRINTF. Default 0
-trace_sampling_memory_partition                   -1 # The memory partition which is printed using MEMPART_DPRINTF. Default -1 (i.e. all)
-enable_ptx_file_line_stats                    1 # Turn on PTX source line statistic profiling. (1 = On)
-ptx_line_stats_filename gpgpu_inst_stats.txt # Output file for PTX source line statistics.
-gpgpu_kernel_launch_latency                    0 # Kernel launch latency in cycles. Default: 0
-gpgpu_cdp_enabled                      0 # Turn on CDP
DRAM Timing Options:
nbk                                    16 # number of banks
CCD                                     1 # column to column delay
RRD                                     3 # minimal delay between activation of rows in different banks
RCD                                    12 # row to column delay
RAS                                    28 # time needed to activate row
RP                                     12 # time needed to precharge (deactivate) row
RC                                     40 # row cycle time
CDLR                                    3 # switching from write to read (changes tWTR)
WR                                     10 # last data-in to row precharge
CL                                     12 # CAS latency
WL                                      2 # Write latency
nbkgrp                                  4 # number of bank groups
CCDL                                    2 # column to column delay between accesses to different bank groups
RTPL                                    3 # read to precharge delay between accesses to different bank groups
Total number of memory sub partition = 48
addr_dec_mask[CHIP]  = 0000000000000000 	high:64 low:0
addr_dec_mask[BK]    = 0000000000007100 	high:15 low:8
addr_dec_mask[ROW]   = 000000000fff8000 	high:28 low:15
addr_dec_mask[COL]   = 0000000000000eff 	high:12 low:0
addr_dec_mask[BURST] = 000000000000001f 	high:5 low:0
sub_partition_id_mask = 0000000000000100
GPGPU-Sim uArch: clock freqs: 1200000000.000000:1200000000.000000:1200000000.000000:850000000.000000
GPGPU-Sim uArch: clock periods: 0.00000000083333333333:0.00000000083333333333:0.00000000083333333333:0.00000000117647058824
*** Initializing Memory Statistics ***
rohan tlb config lines 128rohan tlb latnecy 20rohan tlb config lines 128rohan tlb latnecy 20GPGPU-Sim uArch: interconnect node map (shaderID+MemID to icntID)
GPGPU-Sim uArch: Memory nodes ID start from index: 40
GPGPU-Sim uArch:    0   1   2   3   4   5   6   7   8
GPGPU-Sim uArch:    9  10  11  12  13  14  15  16  17
GPGPU-Sim uArch:   18  19  20  21  22  23  24  25  26
GPGPU-Sim uArch:   27  28  29  30  31  32  33  34  35
GPGPU-Sim uArch:   36  37  38  39  40  41  42  43  44
GPGPU-Sim uArch:   45  46  47  48  49  50  51  52  53
GPGPU-Sim uArch:   54  55  56  57  58  59  60  61  62
GPGPU-Sim uArch:   63  64  65  66  67  68  69  70  71
GPGPU-Sim uArch:   72  73  74  75  76  77  78  79  80
GPGPU-Sim uArch:   81  82  83  84  85  86  87
GPGPU-Sim uArch: interconnect node reverse map (icntID to shaderID+MemID)
GPGPU-Sim uArch: Memory nodes start from ID: 40
GPGPU-Sim uArch:    0   1   2   3   4   5   6   7   8
GPGPU-Sim uArch:    9  10  11  12  13  14  15  16  17
GPGPU-Sim uArch:   18  19  20  21  22  23  24  25  26
GPGPU-Sim uArch:   27  28  29  30  31  32  33  34  35
GPGPU-Sim uArch:   36  37  38  39  40  41  42  43  44
GPGPU-Sim uArch:   45  46  47  48  49  50  51  52  53
GPGPU-Sim uArch:   54  55  56  57  58  59  60  61  62
GPGPU-Sim uArch:   63  64  65  66  67  68  69  70  71
GPGPU-Sim uArch:   72  73  74  75  76  77  78  79  80
GPGPU-Sim uArch:   81  82  83  84  85  86  87
3dd2d4fa578ede62d1bb34557bb85b5d  /var/lib/condor/execute/slot1/dir_36449/pagerank
Extracting PTX file and ptxas options    1: pagerank.1.sm_70.ptx -arch=sm_70
GPGPU-Sim uArch: performance model initialization complete.
self exe links to: /var/lib/condor/execute/slot1/dir_36449/pagerank
self exe links to: /var/lib/condor/execute/slot1/dir_36449/pagerank
9.1
GPGPU-Sim PTX: __cudaRegisterFatBinary, fat_cubin_handle = 1, filename=default
self exe links to: /var/lib/condor/execute/slot1/dir_36449/pagerank
Running md5sum using "md5sum /var/lib/condor/execute/slot1/dir_36449/pagerank "
self exe links to: /var/lib/condor/execute/slot1/dir_36449/pagerank
Extracting specific PTX file named pagerank.1.sm_70.ptx 
GPGPU-Sim PTX: __cudaRegisterFunction _Z9inibufferPiPfS0_ii : hostFun 0x0x401910, fat_cubin_handle = 1
GPGPU-Sim PTX: Parsing pagerank.1.sm_70.ptx
GPGPU-Sim PTX: instruction assembly for function '_Z9pagerank1PiS_S_PfS0_ii'...   done.
GPGPU-Sim PTX: instruction assembly for function '_Z9pagerank2PiS_S_PfS0_ii'...   done.
GPGPU-Sim PTX: instruction assembly for function '_Z9inibufferPiPfS0_ii'...   done.
GPGPU-Sim PTX: finished parsing EMBEDDED .ptx file pagerank.1.sm_70.ptx
GPGPU-Sim PTX: loading globals with explicit initializers... 
GPGPU-Sim PTX: finished loading globals (0 bytes total).
GPGPU-Sim PTX: loading constants with explicit initializers...  done.
GPGPU-Sim PTX: Loading PTXInfo from pagerank.1.sm_70.ptx
GPGPU-Sim PTX: Kernel '_Z9inibufferPiPfS0_ii' : regs=14, lmem=0, smem=0, cmem=384
GPGPU-Sim PTX: Kernel '_Z9pagerank2PiS_S_PfS0_ii' : regs=18, lmem=0, smem=0, cmem=432
GPGPU-Sim PTX: Kernel '_Z9pagerank1PiS_S_PfS0_ii' : regs=26, lmem=0, smem=0, cmem=400
GPGPU-Sim PTX: __cudaRegisterFunction _Z9pagerank2PiS_S_PfS0_ii : hostFun 0x0x401b10, fat_cubin_handle = 1
GPGPU-Sim PTX: __cudaRegisterFunction _Z9pagerank1PiS_S_PfS0_ii : hostFun 0x0x4019f0, fat_cubin_handle = 1
Opening file: coAuthorsDBLP.graph
This is an undirected graph
Read from file: num_nodes = 299067, num_edges = 1955352
Graph: coAuthorsDBLP.graph, nodes: 299067, edges: 1955352
GPGPU-Sim PTX: Setting up arguments for 8 bytes starting at 0x7ffc40b347d8..
GPGPU-Sim PTX: Setting up arguments for 8 bytes starting at 0x7ffc40b347d0..
GPGPU-Sim PTX: Setting up arguments for 8 bytes starting at 0x7ffc40b347c8..
GPGPU-Sim PTX: Setting up arguments for 4 bytes starting at 0x7ffc40b347c4..
GPGPU-Sim PTX: Setting up arguments for 4 bytes starting at 0x7ffc40b347c0..

GPGPU-Sim PTX: cudaLaunch for 0x0x401910 (mode=performance simulation) on stream 0
GPGPU-Sim PTX: finding reconvergence points for '_Z9inibufferPiPfS0_ii'...
GPGPU-Sim PTX: Finding dominators for '_Z9inibufferPiPfS0_ii'...
GPGPU-Sim PTX: Finding immediate dominators for '_Z9inibufferPiPfS0_ii'...
GPGPU-Sim PTX: Finding postdominators for '_Z9inibufferPiPfS0_ii'...
GPGPU-Sim PTX: Finding immediate postdominators for '_Z9inibufferPiPfS0_ii'...
GPGPU-Sim PTX: pre-decoding instructions for '_Z9inibufferPiPfS0_ii'...
GPGPU-Sim PTX: reconvergence points for _Z9inibufferPiPfS0_ii...
GPGPU-Sim PTX:  1 (potential) branch divergence @  PC=0x408 (pagerank.1.sm_70.ptx:219) @%p1 bra BB2_2;
GPGPU-Sim PTX:    immediate post dominator      @  PC=0x460 (pagerank.1.sm_70.ptx:233) ret;
GPGPU-Sim PTX: ... end of reconvergence points for _Z9inibufferPiPfS0_ii
GPGPU-Sim PTX: ... done pre-decoding instructions for '_Z9inibufferPiPfS0_ii'.
GPGPU-Sim PTX: pushing kernel '_Z9inibufferPiPfS0_ii' to stream 0, gridDim= (1169,1,1) blockDim = (256,1,1) 
GPGPU-Sim uArch: Shader 0 bind to kernel 1 '_Z9inibufferPiPfS0_ii'
GPGPU-Sim uArch: CTA/core = 8, limited by: threads
GPGPU-Sim: Reconfigure L1 cache in Volta Archi to 128KB
GPGPU-Sim uArch: Shader 2 bind to kernel 1 '_Z9inibufferPiPfS0_ii'
GPGPU-Sim uArch: Shader 4 bind to kernel 1 '_Z9inibufferPiPfS0_ii'
GPGPU-Sim uArch: Shader 6 bind to kernel 1 '_Z9inibufferPiPfS0_ii'
GPGPU-Sim uArch: Shader 8 bind to kernel 1 '_Z9inibufferPiPfS0_ii'
GPGPU-Sim uArch: Shader 10 bind to kernel 1 '_Z9inibufferPiPfS0_ii'
GPGPU-Sim uArch: Shader 12 bind to kernel 1 '_Z9inibufferPiPfS0_ii'
GPGPU-Sim uArch: Shader 14 bind to kernel 1 '_Z9inibufferPiPfS0_ii'
GPGPU-Sim uArch: Shader 16 bind to kernel 1 '_Z9inibufferPiPfS0_ii'
GPGPU-Sim uArch: Shader 18 bind to kernel 1 '_Z9inibufferPiPfS0_ii'
GPGPU-Sim uArch: Shader 20 bind to kernel 1 '_Z9inibufferPiPfS0_ii'
GPGPU-Sim uArch: Shader 22 bind to kernel 1 '_Z9inibufferPiPfS0_ii'
GPGPU-Sim uArch: Shader 24 bind to kernel 1 '_Z9inibufferPiPfS0_ii'
GPGPU-Sim uArch: Shader 26 bind to kernel 1 '_Z9inibufferPiPfS0_ii'
GPGPU-Sim uArch: Shader 28 bind to kernel 1 '_Z9inibufferPiPfS0_ii'
GPGPU-Sim uArch: Shader 30 bind to kernel 1 '_Z9inibufferPiPfS0_ii'
GPGPU-Sim uArch: Shader 32 bind to kernel 1 '_Z9inibufferPiPfS0_ii'
GPGPU-Sim uArch: Shader 34 bind to kernel 1 '_Z9inibufferPiPfS0_ii'
GPGPU-Sim uArch: Shader 36 bind to kernel 1 '_Z9inibufferPiPfS0_ii'
GPGPU-Sim uArch: Shader 38 bind to kernel 1 '_Z9inibufferPiPfS0_ii'
GPGPU-Sim uArch: Shader 40 bind to kernel 1 '_Z9inibufferPiPfS0_ii'
GPGPU-Sim uArch: Shader 42 bind to kernel 1 '_Z9inibufferPiPfS0_ii'
GPGPU-Sim uArch: Shader 44 bind to kernel 1 '_Z9inibufferPiPfS0_ii'
GPGPU-Sim uArch: Shader 46 bind to kernel 1 '_Z9inibufferPiPfS0_ii'
GPGPU-Sim uArch: Shader 48 bind to kernel 1 '_Z9inibufferPiPfS0_ii'
GPGPU-Sim uArch: Shader 50 bind to kernel 1 '_Z9inibufferPiPfS0_ii'
GPGPU-Sim uArch: Shader 52 bind to kernel 1 '_Z9inibufferPiPfS0_ii'
GPGPU-Sim uArch: Shader 54 bind to kernel 1 '_Z9inibufferPiPfS0_ii'
GPGPU-Sim uArch: Shader 56 bind to kernel 1 '_Z9inibufferPiPfS0_ii'
GPGPU-Sim uArch: Shader 58 bind to kernel 1 '_Z9inibufferPiPfS0_ii'
GPGPU-Sim uArch: Shader 60 bind to kernel 1 '_Z9inibufferPiPfS0_ii'
GPGPU-Sim uArch: Shader 62 bind to kernel 1 '_Z9inibufferPiPfS0_ii'
GPGPU-Sim uArch: Shader 64 bind to kernel 1 '_Z9inibufferPiPfS0_ii'
GPGPU-Sim uArch: Shader 66 bind to kernel 1 '_Z9inibufferPiPfS0_ii'
GPGPU-Sim uArch: Shader 68 bind to kernel 1 '_Z9inibufferPiPfS0_ii'
GPGPU-Sim uArch: Shader 70 bind to kernel 1 '_Z9inibufferPiPfS0_ii'
GPGPU-Sim uArch: Shader 72 bind to kernel 1 '_Z9inibufferPiPfS0_ii'
GPGPU-Sim uArch: Shader 74 bind to kernel 1 '_Z9inibufferPiPfS0_ii'
GPGPU-Sim uArch: Shader 76 bind to kernel 1 '_Z9inibufferPiPfS0_ii'
GPGPU-Sim uArch: Shader 78 bind to kernel 1 '_Z9inibufferPiPfS0_ii'
GPGPU-Sim uArch: Shader 1 bind to kernel 1 '_Z9inibufferPiPfS0_ii'
GPGPU-Sim uArch: Shader 3 bind to kernel 1 '_Z9inibufferPiPfS0_ii'
GPGPU-Sim uArch: Shader 5 bind to kernel 1 '_Z9inibufferPiPfS0_ii'
GPGPU-Sim uArch: Shader 7 bind to kernel 1 '_Z9inibufferPiPfS0_ii'
GPGPU-Sim uArch: Shader 9 bind to kernel 1 '_Z9inibufferPiPfS0_ii'
GPGPU-Sim uArch: Shader 11 bind to kernel 1 '_Z9inibufferPiPfS0_ii'
GPGPU-Sim uArch: Shader 13 bind to kernel 1 '_Z9inibufferPiPfS0_ii'
GPGPU-Sim uArch: Shader 15 bind to kernel 1 '_Z9inibufferPiPfS0_ii'
GPGPU-Sim uArch: Shader 17 bind to kernel 1 '_Z9inibufferPiPfS0_ii'
GPGPU-Sim uArch: Shader 19 bind to kernel 1 '_Z9inibufferPiPfS0_ii'
GPGPU-Sim uArch: Shader 21 bind to kernel 1 '_Z9inibufferPiPfS0_ii'
GPGPU-Sim uArch: Shader 23 bind to kernel 1 '_Z9inibufferPiPfS0_ii'
GPGPU-Sim uArch: Shader 25 bind to kernel 1 '_Z9inibufferPiPfS0_ii'
GPGPU-Sim uArch: Shader 27 bind to kernel 1 '_Z9inibufferPiPfS0_ii'
GPGPU-Sim uArch: Shader 29 bind to kernel 1 '_Z9inibufferPiPfS0_ii'
GPGPU-Sim uArch: Shader 31 bind to kernel 1 '_Z9inibufferPiPfS0_ii'
GPGPU-Sim uArch: Shader 33 bind to kernel 1 '_Z9inibufferPiPfS0_ii'
GPGPU-Sim uArch: Shader 35 bind to kernel 1 '_Z9inibufferPiPfS0_ii'
GPGPU-Sim uArch: Shader 37 bind to kernel 1 '_Z9inibufferPiPfS0_ii'
GPGPU-Sim uArch: Shader 39 bind to kernel 1 '_Z9inibufferPiPfS0_ii'
GPGPU-Sim uArch: Shader 41 bind to kernel 1 '_Z9inibufferPiPfS0_ii'
GPGPU-Sim uArch: Shader 43 bind to kernel 1 '_Z9inibufferPiPfS0_ii'
GPGPU-Sim uArch: Shader 45 bind to kernel 1 '_Z9inibufferPiPfS0_ii'
GPGPU-Sim uArch: Shader 47 bind to kernel 1 '_Z9inibufferPiPfS0_ii'
GPGPU-Sim uArch: Shader 49 bind to kernel 1 '_Z9inibufferPiPfS0_ii'
GPGPU-Sim uArch: Shader 51 bind to kernel 1 '_Z9inibufferPiPfS0_ii'
GPGPU-Sim uArch: Shader 53 bind to kernel 1 '_Z9inibufferPiPfS0_ii'
GPGPU-Sim uArch: Shader 55 bind to kernel 1 '_Z9inibufferPiPfS0_ii'
GPGPU-Sim uArch: Shader 57 bind to kernel 1 '_Z9inibufferPiPfS0_ii'
GPGPU-Sim uArch: Shader 59 bind to kernel 1 '_Z9inibufferPiPfS0_ii'
GPGPU-Sim uArch: Shader 61 bind to kernel 1 '_Z9inibufferPiPfS0_ii'
GPGPU-Sim uArch: Shader 63 bind to kernel 1 '_Z9inibufferPiPfS0_ii'
GPGPU-Sim uArch: Shader 65 bind to kernel 1 '_Z9inibufferPiPfS0_ii'
GPGPU-Sim uArch: Shader 67 bind to kernel 1 '_Z9inibufferPiPfS0_ii'
GPGPU-Sim uArch: Shader 69 bind to kernel 1 '_Z9inibufferPiPfS0_ii'
GPGPU-Sim uArch: Shader 71 bind to kernel 1 '_Z9inibufferPiPfS0_ii'
GPGPU-Sim uArch: Shader 73 bind to kernel 1 '_Z9inibufferPiPfS0_ii'
GPGPU-Sim uArch: Shader 75 bind to kernel 1 '_Z9inibufferPiPfS0_ii'
GPGPU-Sim uArch: Shader 77 bind to kernel 1 '_Z9inibufferPiPfS0_ii'
GPGPU-Sim uArch: Shader 79 bind to kernel 1 '_Z9inibufferPiPfS0_ii'
Destroy streams for kernel 1: size 0
kernel_name = _Z9inibufferPiPfS0_ii 
kernel_launch_uid = 1 
gpu_sim_cycle = 7140
gpu_sim_insn = 5684243
gpu_ipc =     796.1125
gpu_tot_sim_cycle = 7140
gpu_tot_sim_insn = 5684243
gpu_tot_ipc =     796.1125
gpu_tot_issued_cta = 1169
gpu_occupancy = 80.9482% 
gpu_tot_occupancy = 80.9482% 
max_total_param_size = 0
gpu_stall_dramfull = 653
gpu_stall_icnt2sh    = 0
partiton_level_parallism =      10.5053
partiton_level_parallism_total  =      10.5053
partiton_level_parallism_util =      12.6917
partiton_level_parallism_util_total  =      12.6917
L2_BW  =     406.4161 GB/Sec
L2_BW_total  =     406.4161 GB/Sec
gpu_total_sim_rate=14574

========= Core cache stats =========
L1I_cache:
	L1I_total_cache_accesses = 93496
	L1I_total_cache_misses = 7680
	L1I_total_cache_miss_rate = 0.0821
	L1I_total_cache_pending_hits = 0
	L1I_total_cache_reservation_fails = 51536
L1D_cache:
	L1D_cache_core[0]: Access = 1984, Miss = 1984, Miss_rate = 1.000, Pending_hits = 0, Reservation_fails = 0
	L1D_cache_core[1]: Access = 1920, Miss = 1920, Miss_rate = 1.000, Pending_hits = 0, Reservation_fails = 0
	L1D_cache_core[2]: Access = 1920, Miss = 1920, Miss_rate = 1.000, Pending_hits = 0, Reservation_fails = 0
	L1D_cache_core[3]: Access = 1856, Miss = 1856, Miss_rate = 1.000, Pending_hits = 0, Reservation_fails = 0
	L1D_cache_core[4]: Access = 1920, Miss = 1920, Miss_rate = 1.000, Pending_hits = 0, Reservation_fails = 0
	L1D_cache_core[5]: Access = 1920, Miss = 1920, Miss_rate = 1.000, Pending_hits = 0, Reservation_fails = 0
	L1D_cache_core[6]: Access = 1920, Miss = 1920, Miss_rate = 1.000, Pending_hits = 0, Reservation_fails = 0
	L1D_cache_core[7]: Access = 1920, Miss = 1920, Miss_rate = 1.000, Pending_hits = 0, Reservation_fails = 0
	L1D_cache_core[8]: Access = 1984, Miss = 1984, Miss_rate = 1.000, Pending_hits = 0, Reservation_fails = 0
	L1D_cache_core[9]: Access = 1920, Miss = 1920, Miss_rate = 1.000, Pending_hits = 0, Reservation_fails = 0
	L1D_cache_core[10]: Access = 1856, Miss = 1856, Miss_rate = 1.000, Pending_hits = 0, Reservation_fails = 0
	L1D_cache_core[11]: Access = 1856, Miss = 1856, Miss_rate = 1.000, Pending_hits = 0, Reservation_fails = 0
	L1D_cache_core[12]: Access = 1920, Miss = 1920, Miss_rate = 1.000, Pending_hits = 0, Reservation_fails = 0
	L1D_cache_core[13]: Access = 1920, Miss = 1920, Miss_rate = 1.000, Pending_hits = 0, Reservation_fails = 0
	L1D_cache_core[14]: Access = 1920, Miss = 1920, Miss_rate = 1.000, Pending_hits = 0, Reservation_fails = 0
	L1D_cache_core[15]: Access = 1920, Miss = 1920, Miss_rate = 1.000, Pending_hits = 0, Reservation_fails = 0
	L1D_cache_core[16]: Access = 1920, Miss = 1920, Miss_rate = 1.000, Pending_hits = 0, Reservation_fails = 0
	L1D_cache_core[17]: Access = 1856, Miss = 1856, Miss_rate = 1.000, Pending_hits = 0, Reservation_fails = 0
	L1D_cache_core[18]: Access = 1856, Miss = 1856, Miss_rate = 1.000, Pending_hits = 0, Reservation_fails = 0
	L1D_cache_core[19]: Access = 1856, Miss = 1856, Miss_rate = 1.000, Pending_hits = 0, Reservation_fails = 0
	L1D_cache_core[20]: Access = 1920, Miss = 1920, Miss_rate = 1.000, Pending_hits = 0, Reservation_fails = 0
	L1D_cache_core[21]: Access = 1920, Miss = 1920, Miss_rate = 1.000, Pending_hits = 0, Reservation_fails = 0
	L1D_cache_core[22]: Access = 1920, Miss = 1920, Miss_rate = 1.000, Pending_hits = 0, Reservation_fails = 0
	L1D_cache_core[23]: Access = 1920, Miss = 1920, Miss_rate = 1.000, Pending_hits = 0, Reservation_fails = 0
	L1D_cache_core[24]: Access = 1920, Miss = 1920, Miss_rate = 1.000, Pending_hits = 0, Reservation_fails = 0
	L1D_cache_core[25]: Access = 1920, Miss = 1920, Miss_rate = 1.000, Pending_hits = 0, Reservation_fails = 0
	L1D_cache_core[26]: Access = 1856, Miss = 1856, Miss_rate = 1.000, Pending_hits = 0, Reservation_fails = 0
	L1D_cache_core[27]: Access = 1872, Miss = 1872, Miss_rate = 1.000, Pending_hits = 0, Reservation_fails = 0
	L1D_cache_core[28]: Access = 1792, Miss = 1792, Miss_rate = 1.000, Pending_hits = 0, Reservation_fails = 0
	L1D_cache_core[29]: Access = 1792, Miss = 1792, Miss_rate = 1.000, Pending_hits = 0, Reservation_fails = 0
	L1D_cache_core[30]: Access = 1792, Miss = 1792, Miss_rate = 1.000, Pending_hits = 0, Reservation_fails = 0
	L1D_cache_core[31]: Access = 1792, Miss = 1792, Miss_rate = 1.000, Pending_hits = 0, Reservation_fails = 0
	L1D_cache_core[32]: Access = 1792, Miss = 1792, Miss_rate = 1.000, Pending_hits = 0, Reservation_fails = 0
	L1D_cache_core[33]: Access = 1792, Miss = 1792, Miss_rate = 1.000, Pending_hits = 0, Reservation_fails = 0
	L1D_cache_core[34]: Access = 1792, Miss = 1792, Miss_rate = 1.000, Pending_hits = 0, Reservation_fails = 0
	L1D_cache_core[35]: Access = 1792, Miss = 1792, Miss_rate = 1.000, Pending_hits = 0, Reservation_fails = 0
	L1D_cache_core[36]: Access = 1728, Miss = 1728, Miss_rate = 1.000, Pending_hits = 0, Reservation_fails = 0
	L1D_cache_core[37]: Access = 1792, Miss = 1792, Miss_rate = 1.000, Pending_hits = 0, Reservation_fails = 0
	L1D_cache_core[38]: Access = 1728, Miss = 1728, Miss_rate = 1.000, Pending_hits = 0, Reservation_fails = 0
	L1D_cache_core[39]: Access = 1792, Miss = 1792, Miss_rate = 1.000, Pending_hits = 0, Reservation_fails = 0
	L1D_total_cache_accesses = 74768
	L1D_total_cache_misses = 74768
	L1D_total_cache_miss_rate = 1.0000
	L1D_total_cache_pending_hits = 0
	L1D_total_cache_reservation_fails = 0
	L1D_cache_data_port_util = 0.000
	L1D_cache_fill_port_util = 0.000
L1C_cache:
	L1C_total_cache_accesses = 28056
	L1C_total_cache_misses = 5120
	L1C_total_cache_miss_rate = 0.1825
	L1C_total_cache_pending_hits = 0
	L1C_total_cache_reservation_fails = 45712
L1T_cache:
	L1T_total_cache_accesses = 0
	L1T_total_cache_misses = 0
	L1T_total_cache_pending_hits = 0
	L1T_total_cache_reservation_fails = 0
tlb_cache:
	TLB_total_cache_accesses = 0
	TLB_total_cache_misses = 0
	TLB_total_cache_pending_hits = 0
	TLB_total_cache_reservation_fails = 0

Total_core_cache_stats:
	Total_core_cache_stats_breakdown[GLOBAL_ACC_R][HIT] = 0
	Total_core_cache_stats_breakdown[GLOBAL_ACC_R][HIT_RESERVED] = 0
	Total_core_cache_stats_breakdown[GLOBAL_ACC_R][MISS] = 0
	Total_core_cache_stats_breakdown[GLOBAL_ACC_R][RESERVATION_FAIL] = 0
	Total_core_cache_stats_breakdown[GLOBAL_ACC_R][SECTOR_MISS] = 0
	Total_core_cache_stats_breakdown[LOCAL_ACC_R][HIT] = 0
	Total_core_cache_stats_breakdown[LOCAL_ACC_R][HIT_RESERVED] = 0
	Total_core_cache_stats_breakdown[LOCAL_ACC_R][MISS] = 0
	Total_core_cache_stats_breakdown[LOCAL_ACC_R][RESERVATION_FAIL] = 0
	Total_core_cache_stats_breakdown[LOCAL_ACC_R][SECTOR_MISS] = 0
	Total_core_cache_stats_breakdown[CONST_ACC_R][HIT] = 22936
	Total_core_cache_stats_breakdown[CONST_ACC_R][HIT_RESERVED] = 0
	Total_core_cache_stats_breakdown[CONST_ACC_R][MISS] = 5120
	Total_core_cache_stats_breakdown[CONST_ACC_R][RESERVATION_FAIL] = 45712
	Total_core_cache_stats_breakdown[CONST_ACC_R][SECTOR_MISS] = 0
	Total_core_cache_stats_breakdown[TEXTURE_ACC_R][HIT] = 0
	Total_core_cache_stats_breakdown[TEXTURE_ACC_R][HIT_RESERVED] = 0
	Total_core_cache_stats_breakdown[TEXTURE_ACC_R][MISS] = 0
	Total_core_cache_stats_breakdown[TEXTURE_ACC_R][RESERVATION_FAIL] = 0
	Total_core_cache_stats_breakdown[TEXTURE_ACC_R][SECTOR_MISS] = 0
	Total_core_cache_stats_breakdown[GLOBAL_ACC_W][HIT] = 0
	Total_core_cache_stats_breakdown[GLOBAL_ACC_W][HIT_RESERVED] = 0
	Total_core_cache_stats_breakdown[GLOBAL_ACC_W][MISS] = 74768
	Total_core_cache_stats_breakdown[GLOBAL_ACC_W][RESERVATION_FAIL] = 0
	Total_core_cache_stats_breakdown[GLOBAL_ACC_W][SECTOR_MISS] = 0
	Total_core_cache_stats_breakdown[LOCAL_ACC_W][HIT] = 0
	Total_core_cache_stats_breakdown[LOCAL_ACC_W][HIT_RESERVED] = 0
	Total_core_cache_stats_breakdown[LOCAL_ACC_W][MISS] = 0
	Total_core_cache_stats_breakdown[LOCAL_ACC_W][RESERVATION_FAIL] = 0
	Total_core_cache_stats_breakdown[LOCAL_ACC_W][SECTOR_MISS] = 0
	Total_core_cache_stats_breakdown[L1_WRBK_ACC][HIT] = 0
	Total_core_cache_stats_breakdown[L1_WRBK_ACC][HIT_RESERVED] = 0
	Total_core_cache_stats_breakdown[L1_WRBK_ACC][MISS] = 0
	Total_core_cache_stats_breakdown[L1_WRBK_ACC][RESERVATION_FAIL] = 0
	Total_core_cache_stats_breakdown[L1_WRBK_ACC][SECTOR_MISS] = 0
	Total_core_cache_stats_breakdown[L2_WRBK_ACC][HIT] = 0
	Total_core_cache_stats_breakdown[L2_WRBK_ACC][HIT_RESERVED] = 0
	Total_core_cache_stats_breakdown[L2_WRBK_ACC][MISS] = 0
	Total_core_cache_stats_breakdown[L2_WRBK_ACC][RESERVATION_FAIL] = 0
	Total_core_cache_stats_breakdown[L2_WRBK_ACC][SECTOR_MISS] = 0
	Total_core_cache_stats_breakdown[INST_ACC_R][HIT] = 85816
	Total_core_cache_stats_breakdown[INST_ACC_R][HIT_RESERVED] = 0
	Total_core_cache_stats_breakdown[INST_ACC_R][MISS] = 7680
	Total_core_cache_stats_breakdown[INST_ACC_R][RESERVATION_FAIL] = 51536
	Total_core_cache_stats_breakdown[INST_ACC_R][SECTOR_MISS] = 0
	Total_core_cache_stats_breakdown[L1_WR_ALLOC_R][HIT] = 0
	Total_core_cache_stats_breakdown[L1_WR_ALLOC_R][HIT_RESERVED] = 0
	Total_core_cache_stats_breakdown[L1_WR_ALLOC_R][MISS] = 0
	Total_core_cache_stats_breakdown[L1_WR_ALLOC_R][RESERVATION_FAIL] = 0
	Total_core_cache_stats_breakdown[L1_WR_ALLOC_R][SECTOR_MISS] = 0
	Total_core_cache_stats_breakdown[L2_WR_ALLOC_R][HIT] = 0
	Total_core_cache_stats_breakdown[L2_WR_ALLOC_R][HIT_RESERVED] = 0
	Total_core_cache_stats_breakdown[L2_WR_ALLOC_R][MISS] = 0
	Total_core_cache_stats_breakdown[L2_WR_ALLOC_R][RESERVATION_FAIL] = 0
	Total_core_cache_stats_breakdown[L2_WR_ALLOC_R][SECTOR_MISS] = 0
	Total_core_cache_stats_breakdown[CONST_ACC_R][TOTAL_ACCESS] = 28056
	Total_core_cache_stats_breakdown[GLOBAL_ACC_W][TOTAL_ACCESS] = 74768
	Total_core_cache_stats_breakdown[INST_ACC_R][TOTAL_ACCESS] = 93496

Total_core_cache_fail_stats:
	Total_core_cache_fail_stats_breakdown[CONST_ACC_R][MSHR_MERGE_ENRTY_FAIL] = 45712
	Total_core_cache_fail_stats_breakdown[INST_ACC_R][MSHR_MERGE_ENRTY_FAIL] = 51536
Shader 0 warp_id issue ditsribution:
warp_id:
0, 1, 2, 3, 4, 5, 6, 7, 8, 9, 10, 11, 12, 13, 14, 15, 16, 17, 18, 19, 20, 21, 22, 23, 24, 25, 26, 27, 28, 29, 30, 31, 32, 33, 34, 35, 36, 37, 38, 39, 40, 41, 42, 43, 44, 45, 46, 47, 48, 49, 50, 51, 52, 53, 54, 55, 56, 57, 58, 59, 60, 61, 62, 63, 
distro:
40, 40, 40, 40, 40, 40, 40, 40, 40, 40, 40, 40, 40, 40, 40, 40, 40, 40, 40, 40, 40, 40, 40, 40, 40, 40, 40, 40, 40, 40, 40, 40, 40, 40, 40, 40, 40, 40, 40, 40, 40, 40, 40, 40, 40, 40, 40, 40, 40, 40, 40, 40, 40, 40, 40, 40, 40, 40, 40, 40, 40, 40, 40, 40, 
gpgpu_n_tot_thrd_icount = 5983360
gpgpu_n_tot_w_icount = 186980
gpgpu_n_stall_shd_mem = 1597148
gpgpu_n_mem_read_local = 0
gpgpu_n_mem_write_local = 0
gpgpu_n_mem_read_global = 0
gpgpu_n_mem_write_global = 74768
gpgpu_n_mem_texture = 0
gpgpu_n_mem_const = 80
gpgpu_n_load_insn  = 0
gpgpu_n_store_insn = 598134
gpgpu_n_shmem_insn = 0
gpgpu_n_sstarr_insn = 0
gpgpu_n_tex_insn = 0
gpgpu_n_const_mem_insn = 0
gpgpu_n_param_mem_insn = 897792
gpgpu_n_shmem_bkconflict = 0
gpgpu_n_cache_bkconflict = 0
gpgpu_n_intrawarp_mshr_merge = 0
gpgpu_n_cmem_portconflict = 45712
gpgpu_stall_shd_mem[c_mem][resource_stall] = 0
gpgpu_stall_shd_mem[s_mem][bk_conf] = 0
gpgpu_stall_shd_mem[gl_mem][resource_stall] = 0
gpgpu_stall_shd_mem[gl_mem][coal_stall] = 0
gpgpu_stall_shd_mem[gl_mem][data_port_stall] = 0
gpu_reg_bank_conflict_stalls = 0
Warp Occupancy Distribution:
Stall:1463032	W0_Idle:401131	W0_Scoreboard:69477	W1:0	W2:0	W3:0	W4:0	W5:0	W6:0	W7:0	W8:0	W9:0	W10:0	W11:0	W12:0	W13:0	W14:0	W15:0	W16:0	W17:0	W18:0	W19:0	W20:0	W21:0	W22:0	W23:0	W24:0	W25:0	W26:0	W27:10	W28:0	W29:0	W30:0	W31:0	W32:186970
single_issue_nums: WS0:46750	WS1:46750	WS2:46740	WS3:46740	
dual_issue_nums: WS0:0	WS1:0	WS2:0	WS3:0	
traffic_breakdown_coretomem[CONST_ACC_R] = 640 {8:80,}
traffic_breakdown_coretomem[GLOBAL_ACC_W] = 2990720 {40:74768,}
traffic_breakdown_coretomem[INST_ACC_R] = 1280 {8:160,}
traffic_breakdown_memtocore[CONST_ACC_R] = 6400 {40:160,}
traffic_breakdown_memtocore[GLOBAL_ACC_W] = 598144 {8:74768,}
traffic_breakdown_memtocore[INST_ACC_R] = 25600 {40:640,}
maxmflatency = 277 
max_icnt2mem_latency = 85 
maxmrqlatency = 21 
max_icnt2sh_latency = 7 
averagemflatency = 143 
avg_icnt2mem_latency = 14 
avg_mrq_latency = 14 
avg_icnt2sh_latency = 7 
mrq_lat_table:3 	0 	0 	0 	7 	0 	0 	0 	0 	0 	0 	0 	0 	0 	0 	0 	0 	0 	0 	0 	0 	0 	0 	0 	0 	0 	0 	0 	0 	0 	0 	0 	
dq_lat_table:0 	0 	0 	0 	0 	0 	0 	0 	0 	0 	0 	0 	0 	0 	0 	0 	0 	0 	0 	0 	0 	0 	0 	0 	0 	0 	0 	0 	0 	0 	0 	0 	
mf_lat_table:0 	0 	0 	0 	0 	0 	0 	74905 	23 	0 	0 	0 	0 	0 	0 	0 	0 	0 	0 	0 	0 	0 	0 	0 	0 	0 	0 	0 	0 	0 	0 	0 	
icnt2mem_lat_table:0 	0 	152 	67436 	7365 	33 	22 	0 	0 	0 	0 	0 	0 	0 	0 	0 	0 	0 	0 	0 	0 	0 	0 	0 	
icnt2sh_lat_table:0 	0 	74928 	0 	0 	0 	0 	0 	0 	0 	0 	0 	0 	0 	0 	0 	0 	0 	0 	0 	0 	0 	0 	0 	
mf_lat_pw_table:0 	0 	0 	0 	0 	0 	0 	13 	0 	0 	0 	0 	0 	0 	0 	0 	0 	0 	0 	0 	0 	0 	0 	0 	0 	0 	0 	0 	0 	0 	0 	0 	
maximum concurrent accesses to same row:
dram[0]:         0         0         0         0         0         0         0         0         0         0         0         0         0         0         0         0 
dram[1]:         0         0         0         0         0         0         0         0         0         0         0         0         0         0         0         0 
dram[2]:         0         0         0         0         0         0         0         0         0         0         0         0         0         0         0         0 
dram[3]:         0         0         0         0         0         0         0         0         0         0         0         0         0         0         0         0 
dram[4]:         0         0         0         0         0         0         0         0         0         0         0         0         0         0         0         0 
dram[5]:         0         0         0         0         0         0         0         0         0         0         0         0         0         0         0         0 
dram[6]:         0         0         0         0         0         0         0         0         0         0         0         0         0         0         0         0 
dram[7]:         0         0         0         0         0         0         0         0         0         0         0         0         0         0         0         0 
dram[8]:         0         0         0         0         0         0         0         0         0         0         0         0         0         0         0         0 
dram[9]:         0         0         0         0         0         0         0         0         0         0         0         0         0         0         0         0 
dram[10]:         0         0         0         0         0         0         0         0         0         0         0         0         0         0         0         0 
dram[11]:         0         0         0         0         0         0         0         0         0         0         0         0         0         0         0         0 
dram[12]:         0         0         0         0         0         0         0         0         0         0         0         0         0         0         0         0 
dram[13]:         0         0         0         0         0         0         0         0         0         0         0         0         0         0         0         0 
dram[14]:         0         0         0         0         0         0         0         0         0         0         0         0         0         0         0         0 
dram[15]:         0         0         0         0         0         0         0         0         0         0         0         0         0         0         0         0 
dram[16]:         0         0         0         0         0         0         0         0         0         0         0         0         0         0         0         0 
dram[17]:         0         0         0         0         0         0         0         0         0         0         0         0         0         0         0         0 
dram[18]:         0         0         0         0         0         0         0         0         0         0         0         0         0         0         0         0 
dram[19]:         0         0         0         0         0         0         0         0         0         0         0         0         0         0         0         0 
dram[20]:         0         0         0         0         0         0         0         0         0         0         0         0         0         0         0         0 
dram[21]:         0         0         0         0         0         0         0         0         0         0         0         0         0         0         0         0 
dram[22]:         0         0         0         0         0         0         0         0         0         0         0         0         0         0         0         0 
dram[23]:         0         0         0         0         0         0         0         0         0         0         0         0         0         0         0         0 
maximum service time to same row:
dram[0]:         0         0         0         0         0         0         0         0         0         0         0         0         0         0         0         0 
dram[1]:         0         0         0         0         0         0         0         0         0         0         0         0         0         0         0         0 
dram[2]:         0         0         0         0         0         0         0         0         0         0         0         0         0         0         0         0 
dram[3]:       233         0         0         0         0         0         0         0         0         0         0         0         0         0         0         0 
dram[4]:       987         0         0         0         0         0         0         0         0         0         0         0         0         0         0         0 
dram[5]:         0         0         0         0         0         0         0         0         0         0         0         0         0         0         0         0 
dram[6]:         0         0         0         0         0         0         0         0         0         0         0         0         0         0         0         0 
dram[7]:         0         0         0         0         0         0         0         0         0         0         0         0         0         0         0         0 
dram[8]:         0         0         0         0         0         0         0         0         0         0         0         0         0         0         0         0 
dram[9]:         0         0         0         0         0         0         0         0         0         0         0         0         0         0         0         0 
dram[10]:         0         0         0         0         0         0         0         0         0         0         0         0         0         0         0         0 
dram[11]:         0         0         0         0         0         0         0         0         0         0         0         0         0         0         0         0 
dram[12]:         0         0         0         0         0         0         0         0         0         0         0         0         0         0         0         0 
dram[13]:         0         0         0         0         0         0         0         0         0         0         0         0         0         0         0         0 
dram[14]:         0         0         0         0         0         0         0         0         0         0         0         0         0         0         0         0 
dram[15]:         0         0         0         0         0         0         0         0         0         0         0         0         0         0         0         0 
dram[16]:         0         0         0         0         0         0         0         0         0         0         0         0         0         0         0         0 
dram[17]:         0         0         0         0         0         0         0         0         0         0         0         0         0         0         0         0 
dram[18]:         0         0         0         0         0         0         0         0         0         0         0         0         0         0         0         0 
dram[19]:         0         0         0         0         0         0         0         0         0         0         0         0         0         0         0         0 
dram[20]:         0         0         0         0         0         0         0         0         0         0         0         0         0         0         0         0 
dram[21]:         0         0         0         0         0         0         0         0         0         0         0         0         0         0         0         0 
dram[22]:         0         0         0         0         0         0         0         0         0         0         0         0         0         0         0         0 
dram[23]:         0         0         0         0         0         0         0         0         0         0         0         0         0         0         0         0 
average row accesses per activate:
dram[0]:       inf      -nan      -nan      -nan      -nan      -nan      -nan      -nan      -nan      -nan      -nan      -nan      -nan      -nan      -nan      -nan 
dram[1]:      -nan      -nan      -nan      -nan      -nan      -nan      -nan      -nan      -nan      -nan      -nan      -nan      -nan      -nan      -nan      -nan 
dram[2]:      -nan      -nan      -nan      -nan      -nan      -nan      -nan      -nan      -nan      -nan      -nan      -nan      -nan      -nan      -nan      -nan 
dram[3]:  4.000000      -nan      -nan      -nan      -nan      -nan      -nan      -nan      -nan      -nan      -nan      -nan      -nan      -nan      -nan      -nan 
dram[4]:  4.000000      -nan      -nan      -nan      -nan      -nan      -nan      -nan      -nan      -nan      -nan      -nan      -nan      -nan      -nan      -nan 
dram[5]:      -nan      -nan      -nan      -nan      -nan      -nan      -nan      -nan      -nan      -nan      -nan      -nan      -nan      -nan      -nan      -nan 
dram[6]:      -nan      -nan      -nan      -nan      -nan      -nan      -nan      -nan      -nan      -nan      -nan      -nan      -nan      -nan      -nan      -nan 
dram[7]:      -nan      -nan      -nan      -nan      -nan      -nan      -nan      -nan      -nan      -nan      -nan      -nan      -nan      -nan      -nan      -nan 
dram[8]:      -nan      -nan      -nan      -nan      -nan      -nan      -nan      -nan      -nan      -nan      -nan      -nan      -nan      -nan      -nan      -nan 
dram[9]:      -nan      -nan      -nan      -nan      -nan      -nan      -nan      -nan      -nan      -nan      -nan      -nan      -nan      -nan      -nan      -nan 
dram[10]:      -nan      -nan      -nan      -nan      -nan      -nan      -nan      -nan      -nan      -nan      -nan      -nan      -nan      -nan      -nan      -nan 
dram[11]:      -nan      -nan      -nan      -nan      -nan      -nan      -nan      -nan      -nan      -nan      -nan      -nan      -nan      -nan      -nan      -nan 
dram[12]:      -nan      -nan      -nan      -nan      -nan      -nan      -nan      -nan      -nan      -nan      -nan      -nan      -nan      -nan      -nan      -nan 
dram[13]:      -nan      -nan      -nan      -nan      -nan      -nan      -nan      -nan      -nan      -nan      -nan      -nan      -nan      -nan      -nan      -nan 
dram[14]:      -nan      -nan      -nan      -nan      -nan      -nan      -nan      -nan      -nan      -nan      -nan      -nan      -nan      -nan      -nan      -nan 
dram[15]:      -nan      -nan      -nan      -nan      -nan      -nan      -nan      -nan      -nan      -nan      -nan      -nan      -nan      -nan      -nan      -nan 
dram[16]:      -nan      -nan      -nan      -nan      -nan      -nan      -nan      -nan      -nan      -nan      -nan      -nan      -nan      -nan      -nan      -nan 
dram[17]:      -nan      -nan      -nan      -nan      -nan      -nan      -nan      -nan      -nan      -nan      -nan      -nan      -nan      -nan      -nan      -nan 
dram[18]:      -nan      -nan      -nan      -nan      -nan      -nan      -nan      -nan      -nan      -nan      -nan      -nan      -nan      -nan      -nan      -nan 
dram[19]:      -nan      -nan      -nan      -nan      -nan      -nan      -nan      -nan      -nan      -nan      -nan      -nan      -nan      -nan      -nan      -nan 
dram[20]:      -nan      -nan      -nan      -nan      -nan      -nan      -nan      -nan      -nan      -nan      -nan      -nan      -nan      -nan      -nan      -nan 
dram[21]:      -nan      -nan      -nan      -nan      -nan      -nan      -nan      -nan      -nan      -nan      -nan      -nan      -nan      -nan      -nan      -nan 
dram[22]:      -nan      -nan      -nan      -nan      -nan      -nan      -nan      -nan      -nan      -nan      -nan      -nan      -nan      -nan      -nan      -nan 
dram[23]:      -nan      -nan      -nan      -nan      -nan      -nan      -nan      -nan      -nan      -nan      -nan      -nan      -nan      -nan      -nan      -nan 
average row locality = 10/2 = 5.000000
number of total memory accesses made:
dram[0]:         0         0         0         0         0         0         0         0         0         0         0         0         0         0         0         0 
dram[1]:         0         0         0         0         0         0         0         0         0         0         0         0         0         0         0         0 
dram[2]:         0         0         0         0         0         0         0         0         0         0         0         0         0         0         0         0 
dram[3]:         0         0         0         0         0         0         0         0         0         0         0         0         0         0         0         0 
dram[4]:         0         0         0         0         0         0         0         0         0         0         0         0         0         0         0         0 
dram[5]:         0         0         0         0         0         0         0         0         0         0         0         0         0         0         0         0 
dram[6]:         0         0         0         0         0         0         0         0         0         0         0         0         0         0         0         0 
dram[7]:         0         0         0         0         0         0         0         0         0         0         0         0         0         0         0         0 
dram[8]:         0         0         0         0         0         0         0         0         0         0         0         0         0         0         0         0 
dram[9]:         0         0         0         0         0         0         0         0         0         0         0         0         0         0         0         0 
dram[10]:         0         0         0         0         0         0         0         0         0         0         0         0         0         0         0         0 
dram[11]:         0         0         0         0         0         0         0         0         0         0         0         0         0         0         0         0 
dram[12]:         0         0         0         0         0         0         0         0         0         0         0         0         0         0         0         0 
dram[13]:         0         0         0         0         0         0         0         0         0         0         0         0         0         0         0         0 
dram[14]:         0         0         0         0         0         0         0         0         0         0         0         0         0         0         0         0 
dram[15]:         0         0         0         0         0         0         0         0         0         0         0         0         0         0         0         0 
dram[16]:         0         0         0         0         0         0         0         0         0         0         0         0         0         0         0         0 
dram[17]:         0         0         0         0         0         0         0         0         0         0         0         0         0         0         0         0 
dram[18]:         0         0         0         0         0         0         0         0         0         0         0         0         0         0         0         0 
dram[19]:         0         0         0         0         0         0         0         0         0         0         0         0         0         0         0         0 
dram[20]:         0         0         0         0         0         0         0         0         0         0         0         0         0         0         0         0 
dram[21]:         0         0         0         0         0         0         0         0         0         0         0         0         0         0         0         0 
dram[22]:         0         0         0         0         0         0         0         0         0         0         0         0         0         0         0         0 
dram[23]:         0         0         0         0         0         0         0         0         0         0         0         0         0         0         0         0 
total accesses: 0
min_bank_accesses = 0!
min_chip_accesses = 0!
number of total read accesses:
dram[0]:         2         0         0         0         0         0         0         0         0         0         0         0         0         0         0         0 
dram[1]:         0         0         0         0         0         0         0         0         0         0         0         0         0         0         0         0 
dram[2]:         0         0         0         0         0         0         0         0         0         0         0         0         0         0         0         0 
dram[3]:         4         0         0         0         0         0         0         0         0         0         0         0         0         0         0         0 
dram[4]:         4         0         0         0         0         0         0         0         0         0         0         0         0         0         0         0 
dram[5]:         0         0         0         0         0         0         0         0         0         0         0         0         0         0         0         0 
dram[6]:         0         0         0         0         0         0         0         0         0         0         0         0         0         0         0         0 
dram[7]:         0         0         0         0         0         0         0         0         0         0         0         0         0         0         0         0 
dram[8]:         0         0         0         0         0         0         0         0         0         0         0         0         0         0         0         0 
dram[9]:         0         0         0         0         0         0         0         0         0         0         0         0         0         0         0         0 
dram[10]:         0         0         0         0         0         0         0         0         0         0         0         0         0         0         0         0 
dram[11]:         0         0         0         0         0         0         0         0         0         0         0         0         0         0         0         0 
dram[12]:         0         0         0         0         0         0         0         0         0         0         0         0         0         0         0         0 
dram[13]:         0         0         0         0         0         0         0         0         0         0         0         0         0         0         0         0 
dram[14]:         0         0         0         0         0         0         0         0         0         0         0         0         0         0         0         0 
dram[15]:         0         0         0         0         0         0         0         0         0         0         0         0         0         0         0         0 
dram[16]:         0         0         0         0         0         0         0         0         0         0         0         0         0         0         0         0 
dram[17]:         0         0         0         0         0         0         0         0         0         0         0         0         0         0         0         0 
dram[18]:         0         0         0         0         0         0         0         0         0         0         0         0         0         0         0         0 
dram[19]:         0         0         0         0         0         0         0         0         0         0         0         0         0         0         0         0 
dram[20]:         0         0         0         0         0         0         0         0         0         0         0         0         0         0         0         0 
dram[21]:         0         0         0         0         0         0         0         0         0         0         0         0         0         0         0         0 
dram[22]:         0         0         0         0         0         0         0         0         0         0         0         0         0         0         0         0 
dram[23]:         0         0         0         0         0         0         0         0         0         0         0         0         0         0         0         0 
total dram reads = 10
min_bank_accesses = 0!
min_chip_accesses = 0!
number of total write accesses:
dram[0]:         0         0         0         0         0         0         0         0         0         0         0         0         0         0         0         0 
dram[1]:         0         0         0         0         0         0         0         0         0         0         0         0         0         0         0         0 
dram[2]:         0         0         0         0         0         0         0         0         0         0         0         0         0         0         0         0 
dram[3]:         0         0         0         0         0         0         0         0         0         0         0         0         0         0         0         0 
dram[4]:         0         0         0         0         0         0         0         0         0         0         0         0         0         0         0         0 
dram[5]:         0         0         0         0         0         0         0         0         0         0         0         0         0         0         0         0 
dram[6]:         0         0         0         0         0         0         0         0         0         0         0         0         0         0         0         0 
dram[7]:         0         0         0         0         0         0         0         0         0         0         0         0         0         0         0         0 
dram[8]:         0         0         0         0         0         0         0         0         0         0         0         0         0         0         0         0 
dram[9]:         0         0         0         0         0         0         0         0         0         0         0         0         0         0         0         0 
dram[10]:         0         0         0         0         0         0         0         0         0         0         0         0         0         0         0         0 
dram[11]:         0         0         0         0         0         0         0         0         0         0         0         0         0         0         0         0 
dram[12]:         0         0         0         0         0         0         0         0         0         0         0         0         0         0         0         0 
dram[13]:         0         0         0         0         0         0         0         0         0         0         0         0         0         0         0         0 
dram[14]:         0         0         0         0         0         0         0         0         0         0         0         0         0         0         0         0 
dram[15]:         0         0         0         0         0         0         0         0         0         0         0         0         0         0         0         0 
dram[16]:         0         0         0         0         0         0         0         0         0         0         0         0         0         0         0         0 
dram[17]:         0         0         0         0         0         0         0         0         0         0         0         0         0         0         0         0 
dram[18]:         0         0         0         0         0         0         0         0         0         0         0         0         0         0         0         0 
dram[19]:         0         0         0         0         0         0         0         0         0         0         0         0         0         0         0         0 
dram[20]:         0         0         0         0         0         0         0         0         0         0         0         0         0         0         0         0 
dram[21]:         0         0         0         0         0         0         0         0         0         0         0         0         0         0         0         0 
dram[22]:         0         0         0         0         0         0         0         0         0         0         0         0         0         0         0         0 
dram[23]:         0         0         0         0         0         0         0         0         0         0         0         0         0         0         0         0 
total dram writes = 0
min_bank_accesses = 0!
min_chip_accesses = 0!
average mf latency per bank:
dram[0]:      29605    none      none      none      none      none      none      none      none      none      none      none      none      none      none      none  
dram[1]:     none      none      none      none      none      none      none      none      none      none      none      none      none      none      none      none  
dram[2]:     none      none      none      none      none      none      none      none      none      none      none      none      none      none      none      none  
dram[3]:       6887    none      none      none      none      none      none      none      none      none      none      none      none      none      none      none  
dram[4]:       6896    none      none      none      none      none      none      none      none      none      none      none      none      none      none      none  
dram[5]:     none      none      none      none      none      none      none      none      none      none      none      none      none      none      none      none  
dram[6]:     none      none      none      none      none      none      none      none      none      none      none      none      none      none      none      none  
dram[7]:     none      none      none      none      none      none      none      none      none      none      none      none      none      none      none      none  
dram[8]:     none      none      none      none      none      none      none      none      none      none      none      none      none      none      none      none  
dram[9]:     none      none      none      none      none      none      none      none      none      none      none      none      none      none      none      none  
dram[10]:     none      none      none      none      none      none      none      none      none      none      none      none      none      none      none      none  
dram[11]:     none      none      none      none      none      none      none      none      none      none      none      none      none      none      none      none  
dram[12]:     none      none      none      none      none      none      none      none      none      none      none      none      none      none      none      none  
dram[13]:     none      none      none      none      none      none      none      none      none      none      none      none      none      none      none      none  
dram[14]:     none      none      none      none      none      none      none      none      none      none      none      none      none      none      none      none  
dram[15]:     none      none      none      none      none      none      none      none      none      none      none      none      none      none      none      none  
dram[16]:     none      none      none      none      none      none      none      none      none      none      none      none      none      none      none      none  
dram[17]:     none      none      none      none      none      none      none      none      none      none      none      none      none      none      none      none  
dram[18]:     none      none      none      none      none      none      none      none      none      none      none      none      none      none      none      none  
dram[19]:     none      none      none      none      none      none      none      none      none      none      none      none      none      none      none      none  
dram[20]:     none      none      none      none      none      none      none      none      none      none      none      none      none      none      none      none  
dram[21]:     none      none      none      none      none      none      none      none      none      none      none      none      none      none      none      none  
dram[22]:     none      none      none      none      none      none      none      none      none      none      none      none      none      none      none      none  
dram[23]:     none      none      none      none      none      none      none      none      none      none      none      none      none      none      none      none  
maximum mf latency per bank:
dram[0]:        277       149       147       145       148       146       148       147       146       146       148       146       145       147       148       146
dram[1]:        147       149       146       146       147       145       148       149       147       147       147       152       146       147       148       146
dram[2]:        146       148       146       146       147       146       147       146       146       147       146       147       147       148       148       146
dram[3]:        146       147       148       147       147       149       147       148       146       148       146       149       147       150       147       147
dram[4]:        147       150       147       149       145       147       147       147       147       146       147       147       147       147       147       147
dram[5]:        148       146       147       148       146       146       146       148       146       147       151       146       147       146       150       145
dram[6]:        148       147       147       148       146       145       147       147       147       147       148       147       147       146       147       146
dram[7]:        147       146       148       147       146       148       148       146       155       147       156       147       147       149       147       147
dram[8]:        147       146       148       147       147       147       146       148       146       145       147       147       151       147       149       147
dram[9]:        148       146       148       150       148       147       150       147       146       146       146       151       152       147       147       146
dram[10]:        146       149       147       146       148       146       146       145       146       147       146       147       147       146       147       150
dram[11]:        147       147       146       147       147       146       150       147       145       147       149       146       148       149       147       148
dram[12]:        147       147       146       146       146       146       147       150       146       147       147       151       146       147       147       151
dram[13]:        148       146       148       146       146       147       148       146       147       149       146       147       146       150       151       149
dram[14]:        148       146       148       146       150       147       151       149       145       148       147       148       149       147       150       148
dram[15]:        148       147       146       146       147       147       147       146       145       146       148       146       146       146       146       147
dram[16]:        148       146       146       147       146       146       148       146       147       150       147       148       146       146       146       147
dram[17]:        150       148       146       146       146       149       147       147       151       150       146       148       146       146       149       147
dram[18]:        147       150       146       146       146       146       147       146       146       146       146       146       146       146       146       147
dram[19]:        147       148       151       149       146       146       146       146       147       146       148       152       147       146       147       146
dram[20]:        147       148       146       146       147       146       146       146       147       146       147       146       146       146       146       146
dram[21]:        147       146       146       147       148       146       146       146       148       149       147       145       146       145       146       146
dram[22]:        147       147       147       147       147       152       146       146       146       147       147       145       147       146       146       147
dram[23]:        147       148       147       147       146       145       148       146       147       146       147       147       146       145       147       145

Number of Memory Banks Accessed per Memory Operation per Warp (from 0):
0	0	0	0	0	0	0	0	0	0	0	0	0	0	0	0	0	0	0	0	0	0	0	0	0	0	0	0	0	0	0	0	0	0	0	0	0	0	0	0	0	0	0	0	0	0	0	0	0	0	0	0	0	0	0	0	0	0	0	0	0	0	0	0	0	0	0	0	0	0	0	0	0	0	0	0	0	0	0	0	0	0	0	0	0	0	0	0	0	0	0	0	0	0	0	0	0	0	0	0	0	0	0	0	0	0	0	0	0	0	0	0	0	0	0	0	0	0	0	0	0	0	0	0	0	0	0	0	0	0	0	0	0	0	0	0	0	0	0	0	0	0	0	0	0	0	0	0	0	0	0	0	0	0	0	0	0	0	0	0	0	0	0	0	0	0	0	0	0	0	0	0	0	0	0	0	0	0	0	0	0	0	0	0	0	0	0	0	0	0	0	0	0	0	0	0	0	0	0	0	0	0	0	0	0	0	0	0	0	0	0	0	0	0	0	0	0	0	0	0	0	0	0	0	0	0	0	0	0	0	0	0	0	0	0	0	0	0	0	0	0	0	0	0	0	0	0	0	0	0	0	0	0	0	0	0	0	0	0	0	0	0	0	0	0	0	0	0	0	0	0	0	0	0	0	0	0	0	0	0	0	0	0	0	0	0	0	0	0	0	0	0	0	0	0	0	0	0	0	0	0	0	0	0	0	0	0	0	0	0	0	0	0	0	0	0	0	0	0	0	0	0	0	0	0	0	0	0	0	0	0	0	0	0	0	0	0	0	0	0	0	0	0	0	0	0	0	0	0	0	0	0	0	0	0	0	0	0	0	0	0	0	0	0	0	0	0	0	0	0	0	0	0	0	0	0	0	0	0	0	0	0	0	0	
Average # of Memory Banks Accessed per Memory Operation per Warp=-nan

position of mrq chosen
0	0	0	0	0	0	0	0	0	0	0	0	0	0	0	0	0	0	0	0	0	0	0	0	0	0	0	0	0	0	0	0	0	0	0	0	0	0	0	0	0	0	0	0	0	0	0	0	0	0	0	0	0	0	0	0	0	0	0	0	0	0	0	0	

average position of mrq chosen = -nan
Memory Partition 0: 
Cache L2_bank_000:
MSHR contents

Cache L2_bank_001:
MSHR contents

In Dram Latency Queue (total = 0): 
DRAM[0]: 16 bks, busW=16 BL=2 CL=12, tRRD=3 tCCD=1, tRCD=12 tRAS=28 tRP=12 tRC=40
n_cmd=5057 n_nop=5054 n_act=1 n_pre=0 n_ref_event=0 n_req=2 n_rd=2 n_rd_L2_A=0 n_write=0 n_wr_bk=0 bw_util=0.0003955
n_activity=40 dram_eff=0.05
bk0: 2a 5044i bk1: 0a 5057i bk2: 0a 5057i bk3: 0a 5057i bk4: 0a 5057i bk5: 0a 5057i bk6: 0a 5057i bk7: 0a 5057i bk8: 0a 5057i bk9: 0a 5057i bk10: 0a 5057i bk11: 0a 5057i bk12: 0a 5057i bk13: 0a 5057i bk14: 0a 5057i bk15: 0a 5057i 

------------------------------------------------------------------------

Row_Buffer_Locality = 1.000000
Row_Buffer_Locality_read = 1.000000
Row_Buffer_Locality_write = -nan
Bank_Level_Parallism = 1.000000
Bank_Level_Parallism_Col = 1.000000
Bank_Level_Parallism_Ready = 1.000000
write_to_read_ratio_blp_rw_average = 0.000000
GrpLevelPara = 1.000000 

BW Util details:
bwutil = 0.000395 
[...]
issued_two_Eff = 0.074253 
queue_avg = 1.643224 


dram_util_bins: 0 0 0 0 0 0 0 0 0 0
dram_eff_bins: 0 0 0 0 0 0 0 0 0 0
mrqq: max=64 avg=1.64322
Memory Partition 20: 
Cache L2_bank_040:
MSHR contents

Cache L2_bank_041:
MSHR contents

In Dram Latency Queue (total = 0): 
DRAM[20]: 16 bks, busW=16 BL=2 CL=12, tRRD=3 tCCD=1, tRCD=12 tRAS=28 tRP=12 tRC=40
n_cmd=1239344 n_nop=1096950 n_act=33770 n_pre=33754 n_ref_event=0 n_req=74851 n_rd=71289 n_rd_L2_A=0 n_write=0 n_wr_bk=14248 bw_util=0.06902
n_activity=744106 dram_eff=0.115
bk0: 4561a 1168568i bk1: 4544a 1168110i bk2: 4592a 1168876i bk3: 4568a 1166655i bk4: 4780a 1166213i bk5: 4764a 1165933i bk6: 4608a 1167260i bk7: 4561a 1157583i bk8: 4222a 1167701i bk9: 4200a 1165011i bk10: 4231a 1165684i bk11: 4230a 1163359i bk12: 4415a 1165458i bk13: 4404a 1162486i bk14: 4329a 1170710i bk15: 4280a 1167371i 

------------------------------------------------------------------------

Row_Buffer_Locality = 0.548837
Row_Buffer_Locality_read = 0.556860
Row_Buffer_Locality_write = 0.388265
Bank_Level_Parallism = 2.329199
Bank_Level_Parallism_Col = 2.027339
Bank_Level_Parallism_Ready = 1.711517
write_to_read_ratio_blp_rw_average = 0.077873
GrpLevelPara = 1.456523 

BW Util details:
bwutil = 0.069018 
total_CMD = 1239344 
util_bw = 85537 
Wasted_Col = 275683 
Wasted_Row = 174319 
Idle = 703805 

BW Util Bottlenecks: 
RCDc_limit = 320152 
RCDWRc_limit = 9959 
WTRc_limit = 21585 
RTWc_limit = 56522 
CCDLc_limit = 30412 
rwq = 0 
CCDLc_limit_alone = 24025 
WTRc_limit_alone = 19168 
RTWc_limit_alone = 52552 

Commands details: 
total_CMD = 1239344 
n_nop = 1096950 
Read = 71289 
Write = 0 
L2_Alloc = 0 
L2_WB = 14248 
n_act = 33770 
n_pre = 33754 
n_ref = 0 
n_req = 74851 
total_req = 85537 

Dual Bus Interface Util: 
issued_total_row = 67524 
issued_total_col = 85537 
Row_Bus_Util =  0.054484 
CoL_Bus_Util = 0.069018 
Either_Row_CoL_Bus_Util = 0.114895 
Issued_on_Two_Bus_Simul_Util = 0.008607 
issued_two_Eff = 0.074912 
queue_avg = 1.695287 


dram_util_bins: 0 0 0 0 0 0 0 0 0 0
dram_eff_bins: 0 0 0 0 0 0 0 0 0 0
mrqq: max=64 avg=1.69529
Memory Partition 21: 
Cache L2_bank_042:
MSHR contents

Cache L2_bank_043:
MSHR contents

In Dram Latency Queue (total = 0): 
DRAM[21]: 16 bks, busW=16 BL=2 CL=12, tRRD=3 tCCD=1, tRCD=12 tRAS=28 tRP=12 tRC=40
n_cmd=1239344 n_nop=1096267 n_act=33847 n_pre=33831 n_ref_event=0 n_req=74994 n_rd=71441 n_rd_L2_A=0 n_write=0 n_wr_bk=14206 bw_util=0.06911
n_activity=753437 dram_eff=0.1137
bk0: 4505a 1168577i bk1: 4568a 1169247i bk2: 4604a 1171291i bk3: 4592a 1166758i bk4: 4772a 1166190i bk5: 4764a 1165675i bk6: 4636a 1164805i bk7: 4549a 1163529i bk8: 4171a 1164617i bk9: 4216a 1167968i bk10: 4320a 1162749i bk11: 4226a 1164353i bk12: 4448a 1162718i bk13: 4465a 1166505i bk14: 4353a 1167684i bk15: 4252a 1169361i 

------------------------------------------------------------------------

Row_Buffer_Locality = 0.548671
Row_Buffer_Locality_read = 0.555745
Row_Buffer_Locality_write = 0.406417
Bank_Level_Parallism = 2.286362
Bank_Level_Parallism_Col = 1.998328
Bank_Level_Parallism_Ready = 1.686445
write_to_read_ratio_blp_rw_average = 0.076663
GrpLevelPara = 1.445412 

BW Util details:
bwutil = 0.069107 
total_CMD = 1239344 
util_bw = 85647 
Wasted_Col = 279971 
Wasted_Row = 177809 
Idle = 695917 

BW Util Bottlenecks: 
RCDc_limit = 324205 
RCDWRc_limit = 9888 
WTRc_limit = 24415 
RTWc_limit = 54112 
CCDLc_limit = 32176 
rwq = 0 
CCDLc_limit_alone = 25275 
WTRc_limit_alone = 21471 
RTWc_limit_alone = 50155 

Commands details: 
total_CMD = 1239344 
n_nop = 1096267 
Read = 71441 
Write = 0 
L2_Alloc = 0 
L2_WB = 14206 
n_act = 33847 
n_pre = 33831 
n_ref = 0 
n_req = 74994 
total_req = 85647 

Dual Bus Interface Util: 
issued_total_row = 67678 
issued_total_col = 85647 
Row_Bus_Util =  0.054608 
CoL_Bus_Util = 0.069107 
Either_Row_CoL_Bus_Util = 0.115446 
Issued_on_Two_Bus_Simul_Util = 0.008269 
issued_two_Eff = 0.071626 
queue_avg = 1.710471 


dram_util_bins: 0 0 0 0 0 0 0 0 0 0
dram_eff_bins: 0 0 0 0 0 0 0 0 0 0
mrqq: max=64 avg=1.71047
Memory Partition 22: 
Cache L2_bank_044:
MSHR contents

Cache L2_bank_045:
MSHR contents

In Dram Latency Queue (total = 0): 
DRAM[22]: 16 bks, busW=16 BL=2 CL=12, tRRD=3 tCCD=1, tRCD=12 tRAS=28 tRP=12 tRC=40
n_cmd=1239344 n_nop=1095377 n_act=34379 n_pre=34363 n_ref_event=0 n_req=75108 n_rd=71537 n_rd_L2_A=0 n_write=0 n_wr_bk=14284 bw_util=0.06925
n_activity=750452 dram_eff=0.1144
bk0: 4584a 1167645i bk1: 4544a 1166378i bk2: 4606a 1166898i bk3: 4629a 1168664i bk4: 4757a 1168133i bk5: 4773a 1163442i bk6: 4580a 1166007i bk7: 4569a 1166189i bk8: 4212a 1163805i bk9: 4191a 1162802i bk10: 4265a 1165841i bk11: 4284a 1164501i bk12: 4461a 1165934i bk13: 4466a 1167024i bk14: 4320a 1166712i bk15: 4296a 1166981i 

------------------------------------------------------------------------

Row_Buffer_Locality = 0.542272
Row_Buffer_Locality_read = 0.551966
Row_Buffer_Locality_write = 0.348082
Bank_Level_Parallism = 2.301970
Bank_Level_Parallism_Col = 1.973051
Bank_Level_Parallism_Ready = 1.612939
write_to_read_ratio_blp_rw_average = 0.082248
GrpLevelPara = 1.457730 

BW Util details:
bwutil = 0.069247 
total_CMD = 1239344 
util_bw = 85821 
Wasted_Col = 280684 
Wasted_Row = 175490 
Idle = 697349 

BW Util Bottlenecks: 
RCDc_limit = 325902 
RCDWRc_limit = 11448 
WTRc_limit = 24265 
RTWc_limit = 58086 
CCDLc_limit = 31588 
rwq = 0 
CCDLc_limit_alone = 24757 
WTRc_limit_alone = 21428 
RTWc_limit_alone = 54092 

Commands details: 
total_CMD = 1239344 
n_nop = 1095377 
Read = 71537 
Write = 0 
L2_Alloc = 0 
L2_WB = 14284 
n_act = 34379 
n_pre = 34363 
n_ref = 0 
n_req = 75108 
total_req = 85821 

Dual Bus Interface Util: 
issued_total_row = 68742 
issued_total_col = 85821 
Row_Bus_Util =  0.055466 
CoL_Bus_Util = 0.069247 
Either_Row_CoL_Bus_Util = 0.116164 
Issued_on_Two_Bus_Simul_Util = 0.008550 
issued_two_Eff = 0.073600 
queue_avg = 1.584663 


dram_util_bins: 0 0 0 0 0 0 0 0 0 0
dram_eff_bins: 0 0 0 0 0 0 0 0 0 0
mrqq: max=64 avg=1.58466
Memory Partition 23: 
Cache L2_bank_046:
MSHR contents

Cache L2_bank_047:
MSHR contents

In Dram Latency Queue (total = 0): 
DRAM[23]: 16 bks, busW=16 BL=2 CL=12, tRRD=3 tCCD=1, tRCD=12 tRAS=28 tRP=12 tRC=40
n_cmd=1239344 n_nop=1095079 n_act=34706 n_pre=34690 n_ref_event=0 n_req=74670 n_rd=71104 n_rd_L2_A=0 n_write=0 n_wr_bk=14247 bw_util=0.06887
n_activity=754550 dram_eff=0.1131
bk0: 4504a 1170115i bk1: 4512a 1170249i bk2: 4633a 1167131i bk3: 4644a 1165337i bk4: 4779a 1166193i bk5: 4765a 1164626i bk6: 4616a 1161822i bk7: 4552a 1166202i bk8: 4177a 1166526i bk9: 4164a 1165731i bk10: 4256a 1164732i bk11: 4220a 1162805i bk12: 4325a 1165681i bk13: 4314a 1162278i bk14: 4348a 1167378i bk15: 4295a 1163676i 

------------------------------------------------------------------------

Row_Buffer_Locality = 0.535208
Row_Buffer_Locality_read = 0.545004
Row_Buffer_Locality_write = 0.339877
Bank_Level_Parallism = 2.296951
Bank_Level_Parallism_Col = 1.960305
Bank_Level_Parallism_Ready = 1.616724
write_to_read_ratio_blp_rw_average = 0.083171
GrpLevelPara = 1.449371 

BW Util details:
bwutil = 0.068868 
total_CMD = 1239344 
util_bw = 85351 
Wasted_Col = 283912 
Wasted_Row = 176544 
Idle = 693537 

BW Util Bottlenecks: 
RCDc_limit = 329525 
RCDWRc_limit = 11638 
WTRc_limit = 23569 
RTWc_limit = 58186 
CCDLc_limit = 31567 
rwq = 0 
CCDLc_limit_alone = 24900 
WTRc_limit_alone = 20883 
RTWc_limit_alone = 54205 

Commands details: 
total_CMD = 1239344 
n_nop = 1095079 
Read = 71104 
Write = 0 
L2_Alloc = 0 
L2_WB = 14247 
n_act = 34706 
n_pre = 34690 
n_ref = 0 
n_req = 74670 
total_req = 85351 

Dual Bus Interface Util: 
issued_total_row = 69396 
issued_total_col = 85351 
Row_Bus_Util =  0.055994 
CoL_Bus_Util = 0.068868 
Either_Row_CoL_Bus_Util = 0.116404 
Issued_on_Two_Bus_Simul_Util = 0.008458 
issued_two_Eff = 0.072658 
queue_avg = 1.467006 


dram_util_bins: 0 0 0 0 0 0 0 0 0 0
dram_eff_bins: 0 0 0 0 0 0 0 0 0 0
mrqq: max=64 avg=1.46701

========= L2 cache stats =========
L2_cache_bank[0]: Access = 220933, Miss = 39367, Miss_rate = 0.178, Pending_hits = 270, Reservation_fails = 662
L2_cache_bank[1]: Access = 216228, Miss = 39389, Miss_rate = 0.182, Pending_hits = 297, Reservation_fails = 4525
L2_cache_bank[2]: Access = 224391, Miss = 39505, Miss_rate = 0.176, Pending_hits = 361, Reservation_fails = 6270
L2_cache_bank[3]: Access = 216138, Miss = 39599, Miss_rate = 0.183, Pending_hits = 340, Reservation_fails = 3037
L2_cache_bank[4]: Access = 217028, Miss = 39401, Miss_rate = 0.182, Pending_hits = 267, Reservation_fails = 856
L2_cache_bank[5]: Access = 229469, Miss = 39508, Miss_rate = 0.172, Pending_hits = 309, Reservation_fails = 2539
L2_cache_bank[6]: Access = 227044, Miss = 39421, Miss_rate = 0.174, Pending_hits = 315, Reservation_fails = 5147
L2_cache_bank[7]: Access = 216490, Miss = 39523, Miss_rate = 0.183, Pending_hits = 231, Reservation_fails = 1681
L2_cache_bank[8]: Access = 222650, Miss = 39517, Miss_rate = 0.177, Pending_hits = 363, Reservation_fails = 2496
L2_cache_bank[9]: Access = 215440, Miss = 39518, Miss_rate = 0.183, Pending_hits = 268, Reservation_fails = 4891
L2_cache_bank[10]: Access = 220934, Miss = 39445, Miss_rate = 0.179, Pending_hits = 273, Reservation_fails = 139
L2_cache_bank[11]: Access = 216963, Miss = 39587, Miss_rate = 0.182, Pending_hits = 394, Reservation_fails = 10616
L2_cache_bank[12]: Access = 229212, Miss = 39453, Miss_rate = 0.172, Pending_hits = 278, Reservation_fails = 3305
L2_cache_bank[13]: Access = 217201, Miss = 39422, Miss_rate = 0.182, Pending_hits = 275, Reservation_fails = 3955
L2_cache_bank[14]: Access = 244407, Miss = 39686, Miss_rate = 0.162, Pending_hits = 306, Reservation_fails = 1269
L2_cache_bank[15]: Access = 211666, Miss = 39605, Miss_rate = 0.187, Pending_hits = 255, Reservation_fails = 3433
L2_cache_bank[16]: Access = 225329, Miss = 39401, Miss_rate = 0.175, Pending_hits = 384, Reservation_fails = 9888
L2_cache_bank[17]: Access = 228379, Miss = 39540, Miss_rate = 0.173, Pending_hits = 294, Reservation_fails = 2837
L2_cache_bank[18]: Access = 223528, Miss = 39574, Miss_rate = 0.177, Pending_hits = 384, Reservation_fails = 8214
L2_cache_bank[19]: Access = 240434, Miss = 39821, Miss_rate = 0.166, Pending_hits = 419, Reservation_fails = 3600
L2_cache_bank[20]: Access = 212495, Miss = 39501, Miss_rate = 0.186, Pending_hits = 323, Reservation_fails = 4488
L2_cache_bank[21]: Access = 233765, Miss = 39694, Miss_rate = 0.170, Pending_hits = 433, Reservation_fails = 17752
L2_cache_bank[22]: Access = 221155, Miss = 39528, Miss_rate = 0.179, Pending_hits = 326, Reservation_fails = 2858
L2_cache_bank[23]: Access = 214592, Miss = 39375, Miss_rate = 0.183, Pending_hits = 295, Reservation_fails = 4153
L2_cache_bank[24]: Access = 220403, Miss = 39328, Miss_rate = 0.178, Pending_hits = 288, Reservation_fails = 4773
L2_cache_bank[25]: Access = 217286, Miss = 39666, Miss_rate = 0.183, Pending_hits = 456, Reservation_fails = 8631
L2_cache_bank[26]: Access = 219927, Miss = 39544, Miss_rate = 0.180, Pending_hits = 318, Reservation_fails = 7794
L2_cache_bank[27]: Access = 227431, Miss = 39626, Miss_rate = 0.174, Pending_hits = 378, Reservation_fails = 2957
L2_cache_bank[28]: Access = 218666, Miss = 39510, Miss_rate = 0.181, Pending_hits = 278, Reservation_fails = 4494
L2_cache_bank[29]: Access = 225249, Miss = 39492, Miss_rate = 0.175, Pending_hits = 274, Reservation_fails = 3371
L2_cache_bank[30]: Access = 213576, Miss = 39558, Miss_rate = 0.185, Pending_hits = 346, Reservation_fails = 6272
L2_cache_bank[31]: Access = 219511, Miss = 39641, Miss_rate = 0.181, Pending_hits = 377, Reservation_fails = 6820
L2_cache_bank[32]: Access = 217444, Miss = 39371, Miss_rate = 0.181, Pending_hits = 249, Reservation_fails = 662
L2_cache_bank[33]: Access = 224138, Miss = 39486, Miss_rate = 0.176, Pending_hits = 332, Reservation_fails = 7944
L2_cache_bank[34]: Access = 216691, Miss = 39360, Miss_rate = 0.182, Pending_hits = 269, Reservation_fails = 6031
L2_cache_bank[35]: Access = 219680, Miss = 39441, Miss_rate = 0.180, Pending_hits = 342, Reservation_fails = 6475
L2_cache_bank[36]: Access = 217065, Miss = 39471, Miss_rate = 0.182, Pending_hits = 348, Reservation_fails = 1642
L2_cache_bank[37]: Access = 215410, Miss = 39301, Miss_rate = 0.182, Pending_hits = 320, Reservation_fails = 8530
L2_cache_bank[38]: Access = 218979, Miss = 39541, Miss_rate = 0.181, Pending_hits = 316, Reservation_fails = 3512
L2_cache_bank[39]: Access = 224116, Miss = 39516, Miss_rate = 0.176, Pending_hits = 324, Reservation_fails = 5653
L2_cache_bank[40]: Access = 231431, Miss = 39574, Miss_rate = 0.171, Pending_hits = 366, Reservation_fails = 5698
L2_cache_bank[41]: Access = 221947, Miss = 39467, Miss_rate = 0.178, Pending_hits = 288, Reservation_fails = 709
L2_cache_bank[42]: Access = 216610, Miss = 39617, Miss_rate = 0.183, Pending_hits = 275, Reservation_fails = 1404
L2_cache_bank[43]: Access = 221939, Miss = 39444, Miss_rate = 0.178, Pending_hits = 308, Reservation_fails = 4295
L2_cache_bank[44]: Access = 217935, Miss = 39521, Miss_rate = 0.181, Pending_hits = 291, Reservation_fails = 5164
L2_cache_bank[45]: Access = 226869, Miss = 39552, Miss_rate = 0.174, Pending_hits = 280, Reservation_fails = 3338
L2_cache_bank[46]: Access = 217729, Miss = 39526, Miss_rate = 0.182, Pending_hits = 275, Reservation_fails = 1144
L2_cache_bank[47]: Access = 216288, Miss = 39370, Miss_rate = 0.182, Pending_hits = 300, Reservation_fails = 4654
L2_total_cache_accesses = 10632191
L2_total_cache_misses = 1896303
L2_total_cache_miss_rate = 0.1784
L2_total_cache_pending_hits = 15258
L2_total_cache_reservation_fails = 220578
L2_total_cache_breakdown:
	L2_cache_stats_breakdown[GLOBAL_ACC_R][HIT] = 8452921
	L2_cache_stats_breakdown[GLOBAL_ACC_R][HIT_RESERVED] = 15164
	L2_cache_stats_breakdown[GLOBAL_ACC_R][MISS] = 486143
	L2_cache_stats_breakdown[GLOBAL_ACC_R][RESERVATION_FAIL] = 219672
	L2_cache_stats_breakdown[GLOBAL_ACC_R][SECTOR_MISS] = 1226315
	L2_cache_stats_breakdown[LOCAL_ACC_R][HIT] = 0
	L2_cache_stats_breakdown[LOCAL_ACC_R][HIT_RESERVED] = 0
	L2_cache_stats_breakdown[LOCAL_ACC_R][MISS] = 0
	L2_cache_stats_breakdown[LOCAL_ACC_R][RESERVATION_FAIL] = 0
	L2_cache_stats_breakdown[LOCAL_ACC_R][SECTOR_MISS] = 0
	L2_cache_stats_breakdown[CONST_ACC_R][HIT] = 152
	L2_cache_stats_breakdown[CONST_ACC_R][HIT_RESERVED] = 6
	L2_cache_stats_breakdown[CONST_ACC_R][MISS] = 1
	L2_cache_stats_breakdown[CONST_ACC_R][RESERVATION_FAIL] = 127
	L2_cache_stats_breakdown[CONST_ACC_R][SECTOR_MISS] = 1
	L2_cache_stats_breakdown[TEXTURE_ACC_R][HIT] = 0
	L2_cache_stats_breakdown[TEXTURE_ACC_R][HIT_RESERVED] = 0
	L2_cache_stats_breakdown[TEXTURE_ACC_R][MISS] = 0
	L2_cache_stats_breakdown[TEXTURE_ACC_R][RESERVATION_FAIL] = 0
	L2_cache_stats_breakdown[TEXTURE_ACC_R][SECTOR_MISS] = 0
	L2_cache_stats_breakdown[GLOBAL_ACC_W][HIT] = 264801
	L2_cache_stats_breakdown[GLOBAL_ACC_W][HIT_RESERVED] = 0
	L2_cache_stats_breakdown[GLOBAL_ACC_W][MISS] = 45951
	L2_cache_stats_breakdown[GLOBAL_ACC_W][RESERVATION_FAIL] = 0
	L2_cache_stats_breakdown[GLOBAL_ACC_W][SECTOR_MISS] = 137856
	L2_cache_stats_breakdown[LOCAL_ACC_W][HIT] = 0
	L2_cache_stats_breakdown[LOCAL_ACC_W][HIT_RESERVED] = 0
	L2_cache_stats_breakdown[LOCAL_ACC_W][MISS] = 0
	L2_cache_stats_breakdown[LOCAL_ACC_W][RESERVATION_FAIL] = 0
	L2_cache_stats_breakdown[LOCAL_ACC_W][SECTOR_MISS] = 0
	L2_cache_stats_breakdown[L1_WRBK_ACC][HIT] = 0
	L2_cache_stats_breakdown[L1_WRBK_ACC][HIT_RESERVED] = 0
	L2_cache_stats_breakdown[L1_WRBK_ACC][MISS] = 0
	L2_cache_stats_breakdown[L1_WRBK_ACC][RESERVATION_FAIL] = 0
	L2_cache_stats_breakdown[L1_WRBK_ACC][SECTOR_MISS] = 0
	L2_cache_stats_breakdown[L2_WRBK_ACC][HIT] = 0
	L2_cache_stats_breakdown[L2_WRBK_ACC][HIT_RESERVED] = 0
	L2_cache_stats_breakdown[L2_WRBK_ACC][MISS] = 0
	L2_cache_stats_breakdown[L2_WRBK_ACC][RESERVATION_FAIL] = 0
	L2_cache_stats_breakdown[L2_WRBK_ACC][SECTOR_MISS] = 0
	L2_cache_stats_breakdown[INST_ACC_R][HIT] = 2756
	L2_cache_stats_breakdown[INST_ACC_R][HIT_RESERVED] = 88
	L2_cache_stats_breakdown[INST_ACC_R][MISS] = 9
	L2_cache_stats_breakdown[INST_ACC_R][RESERVATION_FAIL] = 779
	L2_cache_stats_breakdown[INST_ACC_R][SECTOR_MISS] = 27
	L2_cache_stats_breakdown[L1_WR_ALLOC_R][HIT] = 0
	L2_cache_stats_breakdown[L1_WR_ALLOC_R][HIT_RESERVED] = 0
	L2_cache_stats_breakdown[L1_WR_ALLOC_R][MISS] = 0
	L2_cache_stats_breakdown[L1_WR_ALLOC_R][RESERVATION_FAIL] = 0
	L2_cache_stats_breakdown[L1_WR_ALLOC_R][SECTOR_MISS] = 0
	L2_cache_stats_breakdown[L2_WR_ALLOC_R][HIT] = 0
	L2_cache_stats_breakdown[L2_WR_ALLOC_R][HIT_RESERVED] = 0
	L2_cache_stats_breakdown[L2_WR_ALLOC_R][MISS] = 0
	L2_cache_stats_breakdown[L2_WR_ALLOC_R][RESERVATION_FAIL] = 0
	L2_cache_stats_breakdown[L2_WR_ALLOC_R][SECTOR_MISS] = 0
	L2_cache_stats_breakdown[GLOBAL_ACC_R][TOTAL_ACCESS] = 10180543
	L2_cache_stats_breakdown[CONST_ACC_R][TOTAL_ACCESS] = 160
	L2_cache_stats_breakdown[GLOBAL_ACC_W][TOTAL_ACCESS] = 448608
	L2_cache_stats_breakdown[INST_ACC_R][TOTAL_ACCESS] = 2880
L2_total_cache_reservation_fail_breakdown:
	L2_cache_stats_fail_breakdown[GLOBAL_ACC_R][MSHR_MERGE_ENRTY_FAIL] = 219672
	L2_cache_stats_fail_breakdown[CONST_ACC_R][MSHR_MERGE_ENRTY_FAIL] = 127
	L2_cache_stats_fail_breakdown[INST_ACC_R][MSHR_MERGE_ENRTY_FAIL] = 779
L2_cache_data_port_util = 0.104
L2_cache_fill_port_util = 0.020

icnt_total_pkts_mem_to_simt=10632191
icnt_total_pkts_simt_to_mem=10629951
LD_mem_lat_dist  0 0 0 0 0 0 0 0 0 0 0 0 0 0 0 0 0 0 0 0 0 0 0 0 0 0 0
ST_mem_lat_dist  0 0 0 0 0 0 0 0 0 0 0 0 0 0 0 0 0 0 0 0 0 0 0 0 0 0 0
----------------------------Interconnect-DETAILS--------------------------------
Class 0:
Packet latency average = 6.03094
	minimum = 5
	maximum = 111
Network latency average = 5.85204
	minimum = 5
	maximum = 105
Slowest packet = 21039275
Flit latency average = 5.85204
	minimum = 5
	maximum = 105
Slowest flit = 21242712
Fragmentation average = 0
	minimum = 0
	maximum = 0
Injected packet rate average = 0.291337
	minimum = 0.266088 (at node 50)
	maximum = 0.32918 (at node 2)
Accepted packet rate average = 0.291337
	minimum = 0.266088 (at node 50)
	maximum = 0.32918 (at node 2)
Injected flit rate average = 0.291337
	minimum = 0.266088 (at node 50)
	maximum = 0.32918 (at node 2)
Accepted flit rate average= 0.291337
	minimum = 0.266088 (at node 50)
	maximum = 0.32918 (at node 2)
Injected packet length average = 1
Accepted packet length average = 1
Total in-flight flits = 0 (0 measured)
====== Overall Traffic Statistics ======
====== Traffic class 0 ======
Packet latency average = 5.6515 (11 samples)
	minimum = 5 (11 samples)
	maximum = 272.636 (11 samples)
Network latency average = 5.47181 (11 samples)
	minimum = 5 (11 samples)
	maximum = 268.273 (11 samples)
Flit latency average = 5.47181 (11 samples)
	minimum = 5 (11 samples)
	maximum = 268.273 (11 samples)
Fragmentation average = 0 (11 samples)
	minimum = 0 (11 samples)
	maximum = 0 (11 samples)
Injected packet rate average = 0.213159 (11 samples)
	minimum = 0.192088 (11 samples)
	maximum = 0.247447 (11 samples)
Accepted packet rate average = 0.213159 (11 samples)
	minimum = 0.192088 (11 samples)
	maximum = 0.247692 (11 samples)
Injected flit rate average = 0.213159 (11 samples)
	minimum = 0.192088 (11 samples)
	maximum = 0.247447 (11 samples)
Accepted flit rate average = 0.213159 (11 samples)
	minimum = 0.192088 (11 samples)
	maximum = 0.247692 (11 samples)
Injected packet size average = 1 (11 samples)
Accepted packet size average = 1 (11 samples)
Hops average = 1 (11 samples)
----------------------------END-of-Interconnect-DETAILS-------------------------


gpgpu_simulation_time = 0 days, 19 hrs, 57 min, 43 sec (71863 sec)
gpgpu_simulation_rate = 2286 (inst/sec)
gpgpu_simulation_rate = 24 (cycle/sec)
GPGPU-Sim: synchronize waiting for inactive GPU simulation
GPGPU-Sim API: Stream Manager State
GPGPU-Sim: detected inactive GPU simulation thread
kernel time = 71859980.368137 ms
kernel + memcpy time = 71862610.245943 ms
GPGPU-Sim: *** exit detected ***
