

        *** GPGPU-Sim Simulator Version 4.0.0  [build gpgpu-sim_git-commit-_modified_] ***


GPGPU-Sim PTX: simulation mode 0 (can change with PTX_SIM_MODE_FUNC environment variable:
               1=functional simulation only, 0=detailed performance simulator)
GPGPU-Sim: Configuration options:

-save_embedded_ptx                      0 # saves ptx files embedded in binary as <n>.ptx
-keep                                   0 # keep intermediate files created by GPGPU-Sim when interfacing with external programs
-gpgpu_ptx_save_converted_ptxplus                    0 # Saved converted ptxplus to a file
-gpgpu_occupancy_sm_number                   70 # The SM number to pass to ptxas when getting register usage for computing GPU occupancy. This parameter is required in the config.
-ptx_opcode_latency_int         4,13,4,5,145 # Opcode latencies for integers <ADD,MAX,MUL,MAD,DIV>Default 1,1,19,25,145
-ptx_opcode_latency_fp          4,13,4,5,39 # Opcode latencies for single precision floating points <ADD,MAX,MUL,MAD,DIV>Default 1,1,1,1,30
-ptx_opcode_latency_dp         8,19,8,8,330 # Opcode latencies for double precision floating points <ADD,MAX,MUL,MAD,DIV>Default 8,8,8,8,335
-ptx_opcode_latency_sfu                  100 # Opcode latencies for SFU instructionsDefault 8
-ptx_opcode_latency_tesnor                   64 # Opcode latencies for Tensor instructionsDefault 64
-ptx_opcode_initiation_int            2,2,2,2,8 # Opcode initiation intervals for integers <ADD,MAX,MUL,MAD,DIV>Default 1,1,4,4,32
-ptx_opcode_initiation_fp            2,2,2,2,4 # Opcode initiation intervals for single precision floating points <ADD,MAX,MUL,MAD,DIV>Default 1,1,1,1,5
-ptx_opcode_initiation_dp          4,4,4,4,130 # Opcode initiation intervals for double precision floating points <ADD,MAX,MUL,MAD,DIV>Default 8,8,8,8,130
-ptx_opcode_initiation_sfu                    8 # Opcode initiation intervals for sfu instructionsDefault 8
-ptx_opcode_initiation_tensor                   64 # Opcode initiation intervals for tensor instructionsDefault 64
-cdp_latency         7200,8000,100,12000,1600 # CDP API latency <cudaStreamCreateWithFlags, cudaGetParameterBufferV2_init_perWarp, cudaGetParameterBufferV2_perKernel, cudaLaunchDeviceV2_init_perWarp, cudaLaunchDevicV2_perKernel>Default 7200,8000,100,12000,1600
-network_mode                           1 # Interconnection network mode
-inter_config_file   config_volta_islip.icnt # Interconnection network config file
-inct_in_buffer_limit                   64 # in_buffer_limit
-inct_out_buffer_limit                   64 # out_buffer_limit
-inct_subnets                           2 # subnets
-gpgpu_ptx_use_cuobjdump                    1 # Use cuobjdump to extract ptx and sass from binaries
-gpgpu_experimental_lib_support                    0 # Try to extract code from cuda libraries [Broken because of unknown cudaGetExportTable]
-checkpoint_option                      0 #  checkpointing flag (0 = no checkpoint)
-checkpoint_kernel                      1 #  checkpointing during execution of which kernel (1- 1st kernel)
-checkpoint_CTA                         0 #  checkpointing after # of CTA (< less than total CTA)
-resume_option                          0 #  resume flag (0 = no resume)
-resume_kernel                          0 #  Resume from which kernel (1= 1st kernel)
-resume_CTA                             0 #  resume from which CTA 
-checkpoint_CTA_t                       0 #  resume from which CTA 
-checkpoint_insn_Y                      0 #  resume from which CTA 
-gpgpu_ptx_convert_to_ptxplus                    0 # Convert SASS (native ISA) to ptxplus and run ptxplus
-gpgpu_ptx_force_max_capability                   70 # Force maximum compute capability
-gpgpu_ptx_inst_debug_to_file                    0 # Dump executed instructions' debug information to file
-gpgpu_ptx_inst_debug_file       inst_debug.txt # Executed instructions' debug output file
-gpgpu_ptx_inst_debug_thread_uid                    1 # Thread UID for executed instructions' debug output
-gpgpu_simd_model                       1 # 1 = post-dominator
-gpgpu_shader_core_pipeline              2048:32 # shader core pipeline config, i.e., {<nthread>:<warpsize>}
-gpgpu_tex_cache:l1  N:16:128:24,L:R:m:N:L,T:128:4,128:2 # per-shader L1 texture cache  (READ-ONLY) config  {<nsets>:<bsize>:<assoc>,<rep>:<wr>:<alloc>:<wr_alloc>,<mshr>:<N>:<merge>,<mq>:<rf>}
-gpgpu_const_cache:l1 N:128:64:8,L:R:f:N:L,S:2:64,4 # per-shader L1 constant memory cache  (READ-ONLY) config  {<nsets>:<bsize>:<assoc>,<rep>:<wr>:<alloc>:<wr_alloc>,<mshr>:<N>:<merge>,<mq>} 
-gpgpu_cache:il1     N:64:128:16,L:R:f:N:L,S:2:48,4 # shader L1 instruction cache config  {<nsets>:<bsize>:<assoc>,<rep>:<wr>:<alloc>:<wr_alloc>,<mshr>:<N>:<merge>,<mq>} 
-gpgpu_cache:dl1     S:4:128:64,L:L:s:N:L,A:256:8,16:0,32 # per-shader L1 data cache config  {<nsets>:<bsize>:<assoc>,<rep>:<wr>:<alloc>:<wr_alloc>,<mshr>:<N>:<merge>,<mq> | none}
-l1_latency                            28 # L1 Hit Latency
-gpgpu_cache:tlb                8:8:8:L:m # per-shader tlb config  {<nsets>:<bsize>:<assoc>:<wr>:<alloc> | none}
-tlb_latency                           20 # TLB Miss Latency
-smem_latency                          19 # smem Latency
-gpgpu_cache:dl1PrefL1                 none # per-shader L1 data cache config  {<nsets>:<bsize>:<assoc>,<rep>:<wr>:<alloc>:<wr_alloc>,<mshr>:<N>:<merge>,<mq> | none}
-gpgpu_cache:dl1PrefShared                 none # per-shader L1 data cache config  {<nsets>:<bsize>:<assoc>,<rep>:<wr>:<alloc>:<wr_alloc>,<mshr>:<N>:<merge>,<mq> | none}
-gmem_skip_L1D                          0 # global memory access skip L1D cache (implements -Xptxas -dlcm=cg, default=no skip)
-gpgpu_perfect_mem                      0 # enable perfect memory mode (no cache miss)
-n_regfile_gating_group                    4 # group of lanes that should be read/written together)
-gpgpu_clock_gated_reg_file                    0 # enable clock gated reg file for power calculations
-gpgpu_clock_gated_lanes                    0 # enable clock gated lanes for power calculations
-gpgpu_shader_registers                65536 # Number of registers per shader core. Limits number of concurrent CTAs. (default 8192)
-gpgpu_registers_per_block                 8192 # Maximum number of registers per CTA. (default 8192)
-gpgpu_ignore_resources_limitation                    0 # gpgpu_ignore_resources_limitation (default 0)
-gpgpu_shader_cta                      32 # Maximum number of concurrent CTAs in shader (default 8)
-gpgpu_num_cta_barriers                   16 # Maximum number of named barriers per CTA (default 16)
-gpgpu_n_clusters                      40 # number of processing clusters
-gpgpu_n_cores_per_cluster                    2 # number of simd cores per cluster
-gpgpu_n_cluster_ejection_buffer_size                   32 # number of packets in ejection buffer
-gpgpu_n_ldst_response_buffer_size                    2 # number of response packets in ld/st unit ejection buffer
-gpgpu_shmem_per_block                49152 # Size of shared memory per thread block or CTA (default 48kB)
-gpgpu_shmem_size                   16384 # Size of shared memory per shader core (default 16kB)
-adaptive_volta_cache_config                    1 # adaptive_volta_cache_config
-gpgpu_shmem_size                   98304 # Size of shared memory per shader core (default 16kB)
-gpgpu_shmem_size_PrefL1                16384 # Size of shared memory per shader core (default 16kB)
-gpgpu_shmem_size_PrefShared                16384 # Size of shared memory per shader core (default 16kB)
-gpgpu_shmem_num_banks                   32 # Number of banks in the shared memory in each shader core (default 16)
-gpgpu_shmem_limited_broadcast                    0 # Limit shared memory to do one broadcast per cycle (default on)
-gpgpu_shmem_warp_parts                    1 # Number of portions a warp is divided into for shared memory bank conflict check 
-mem_unit_ports                         4 # The number of memory transactions allowed per core cycle
-gpgpu_shmem_warp_parts                    1 # Number of portions a warp is divided into for shared memory bank conflict check 
-gpgpu_warpdistro_shader                   -1 # Specify which shader core to collect the warp size distribution from
-gpgpu_warp_issue_shader                    0 # Specify which shader core to collect the warp issue distribution from
-gpgpu_local_mem_map                    1 # Mapping from local memory space address to simulated GPU physical address space (default = enabled)
-gpgpu_num_reg_banks                    8 # Number of register banks (default = 8)
-gpgpu_reg_bank_use_warp_id                    0 # Use warp ID in mapping registers to banks (default = off)
-sub_core_model                         1 # Sub Core Volta/Pascal model (default = off)
-enable_specialized_operand_collector                    0 # enable_specialized_operand_collector
-gpgpu_operand_collector_num_units_sp                    4 # number of collector units (default = 4)
-gpgpu_operand_collector_num_units_dp                    0 # number of collector units (default = 0)
-gpgpu_operand_collector_num_units_sfu                    4 # number of collector units (default = 4)
-gpgpu_operand_collector_num_units_int                    0 # number of collector units (default = 0)
-gpgpu_operand_collector_num_units_tensor_core                    4 # number of collector units (default = 4)
-gpgpu_operand_collector_num_units_mem                    2 # number of collector units (default = 2)
-gpgpu_operand_collector_num_units_gen                    8 # number of collector units (default = 0)
-gpgpu_operand_collector_num_in_ports_sp                    1 # number of collector unit in ports (default = 1)
-gpgpu_operand_collector_num_in_ports_dp                    0 # number of collector unit in ports (default = 0)
-gpgpu_operand_collector_num_in_ports_sfu                    1 # number of collector unit in ports (default = 1)
-gpgpu_operand_collector_num_in_ports_int                    0 # number of collector unit in ports (default = 0)
-gpgpu_operand_collector_num_in_ports_tensor_core                    1 # number of collector unit in ports (default = 1)
-gpgpu_operand_collector_num_in_ports_mem                    1 # number of collector unit in ports (default = 1)
-gpgpu_operand_collector_num_in_ports_gen                    8 # number of collector unit in ports (default = 0)
-gpgpu_operand_collector_num_out_ports_sp                    1 # number of collector unit in ports (default = 1)
-gpgpu_operand_collector_num_out_ports_dp                    0 # number of collector unit in ports (default = 0)
-gpgpu_operand_collector_num_out_ports_sfu                    1 # number of collector unit in ports (default = 1)
-gpgpu_operand_collector_num_out_ports_int                    0 # number of collector unit in ports (default = 0)
-gpgpu_operand_collector_num_out_ports_tensor_core                    1 # number of collector unit in ports (default = 1)
-gpgpu_operand_collector_num_out_ports_mem                    1 # number of collector unit in ports (default = 1)
-gpgpu_operand_collector_num_out_ports_gen                    8 # number of collector unit in ports (default = 0)
-gpgpu_coalesce_arch                   60 # Coalescing arch (GT200 = 13, Fermi = 20)
-gpgpu_num_sched_per_core                    4 # Number of warp schedulers per core
-gpgpu_max_insn_issue_per_warp                    1 # Max number of instructions that can be issued per warp in one cycle by scheduler (either 1 or 2)
-gpgpu_dual_issue_diff_exec_units                    1 # should dual issue use two different execution unit resources (Default = 1)
-gpgpu_simt_core_sim_order                    1 # Select the simulation order of cores in a cluster (0=Fix, 1=Round-Robin)
-gpgpu_pipeline_widths 4,4,4,4,4,4,4,4,4,4,8,4,4 # Pipeline widths ID_OC_SP,ID_OC_DP,ID_OC_INT,ID_OC_SFU,ID_OC_MEM,OC_EX_SP,OC_EX_DP,OC_EX_INT,OC_EX_SFU,OC_EX_MEM,EX_WB,ID_OC_TENSOR_CORE,OC_EX_TENSOR_CORE
-gpgpu_tensor_core_avail                    1 # Tensor Core Available (default=0)
-gpgpu_num_sp_units                     4 # Number of SP units (default=1)
-gpgpu_num_dp_units                     4 # Number of DP units (default=0)
-gpgpu_num_int_units                    4 # Number of INT units (default=0)
-gpgpu_num_sfu_units                    4 # Number of SF units (default=1)
-gpgpu_num_tensor_core_units                    4 # Number of tensor_core units (default=1)
-gpgpu_num_mem_units                    1 # Number if ldst units (default=1) WARNING: not hooked up to anything
-gpgpu_scheduler                      gto # Scheduler configuration: < lrr | gto | two_level_active > If two_level_active:<num_active_warps>:<inner_prioritization>:<outer_prioritization>For complete list of prioritization values see shader.h enum scheduler_prioritization_typeDefault: gto
-gpgpu_concurrent_kernel_sm                    0 # Support concurrent kernels on a SM (default = disabled)
-perf_sim_memcpy                        1 # Fill the L2 cache on memcpy
-gpgpu_dram_scheduler                    1 # 0 = fifo, 1 = FR-FCFS (defaul)
-gpgpu_dram_partition_queues          64:64:64:64 # i2$:$2d:d2$:$2i
-l2_ideal                               0 # Use a ideal L2 cache that always hit
-gpgpu_cache:dl2     S:32:128:24,L:B:m:L:L,A:192:4,32:0,32 # unified banked L2 data cache config  {<nsets>:<bsize>:<assoc>,<rep>:<wr>:<alloc>:<wr_alloc>,<mshr>:<N>:<merge>,<mq>}
-gpgpu_cache:dl2_texture_only                    0 # L2 cache used for texture only
-gpgpu_n_mem                           24 # number of memory modules (e.g. memory controllers) in gpu
-gpgpu_n_sub_partition_per_mchannel                    2 # number of memory subpartition in each memory module
-gpgpu_n_mem_per_ctrlr                    1 # number of memory chips per memory controller
-gpgpu_memlatency_stat                   14 # track and display latency statistics 0x2 enables MC, 0x4 enables queue logs
-gpgpu_frfcfs_dram_sched_queue_size                   64 # 0 = unlimited (default); # entries per chip
-gpgpu_dram_return_queue_size                  192 # 0 = unlimited (default); # entries per chip
-gpgpu_dram_buswidth                   16 # default = 4 bytes (8 bytes per cycle at DDR)
-gpgpu_dram_burst_length                    2 # Burst length of each DRAM request (default = 4 data bus cycle)
-dram_data_command_freq_ratio                    2 # Frequency ratio between DRAM data bus and command bus (default = 2 times, i.e. DDR)
-gpgpu_dram_timing_opt nbk=16:CCD=1:RRD=3:RCD=12:RAS=28:RP=12:RC=40: CL=12:WL=2:CDLR=3:WR=10:nbkgrp=4:CCDL=2:RTPL=3 # DRAM timing parameters = {nbk:tCCD:tRRD:tRCD:tRAS:tRP:tRC:CL:WL:tCDLR:tWR:nbkgrp:tCCDL:tRTPL}
-rop_latency                          120 # ROP queue latency (default 85)
-dram_latency                         100 # DRAM latency (default 30)
-dual_bus_interface                     1 # dual_bus_interface (default = 0) 
-dram_bnk_indexing_policy                    0 # dram_bnk_indexing_policy (0 = normal indexing, 1 = Xoring with the higher bits) (Default = 0)
-dram_bnkgrp_indexing_policy                    1 # dram_bnkgrp_indexing_policy (0 = take higher bits, 1 = take lower bits) (Default = 0)
-Seperate_Write_Queue_Enable                    0 # Seperate_Write_Queue_Enable
-Write_Queue_Size                32:28:16 # Write_Queue_Size
-Elimnate_rw_turnaround                    0 # elimnate_rw_turnaround i.e set tWTR and tRTW = 0
-icnt_flit_size                        40 # icnt_flit_size
-gpgpu_mem_addr_mapping dramid@8;00000000.00000000.00000000.00000000.0000RRRR.RRRRRRRR.RBBBCCCB.CCCSSSSS # mapping memory address to dram model {dramid@<start bit>;<memory address map>}
-gpgpu_mem_addr_test                    0 # run sweep test to check address mapping for aliased address
-gpgpu_mem_address_mask                    1 # 0 = old addressing mask, 1 = new addressing mask, 2 = new add. mask + flipped bank sel and chip sel bits
-memory_partition_indexing                    0 # 0 = no indexing, 1 = bitwise xoring, 2 = IPoly, 3 = custom indexing
-gpuwattch_xml_file         gpuwattch.xml # GPUWattch XML file
-power_simulation_enabled                    0 # Turn on power simulator (1=On, 0=Off)
-power_per_cycle_dump                    0 # Dump detailed power output each cycle
-power_trace_enabled                    0 # produce a file for the power trace (1=On, 0=Off)
-power_trace_zlevel                     6 # Compression level of the power trace output log (0=no comp, 9=highest)
-steady_power_levels_enabled                    0 # produce a file for the steady power levels (1=On, 0=Off)
-steady_state_definition                  8:4 # allowed deviation:number of samples
-gpgpu_max_cycle                        0 # terminates gpu simulation early (0 = no limit)
-gpgpu_max_insn                         0 # terminates gpu simulation early (0 = no limit)
-gpgpu_max_cta                          0 # terminates gpu simulation early (0 = no limit)
-gpgpu_runtime_stat                   500 # display runtime statistics such as dram utilization {<freq>:<flag>}
-liveness_message_freq                    1 # Minimum number of seconds between simulation liveness messages (0 = always print)
-gpgpu_compute_capability_major                    7 # Major compute capability version number
-gpgpu_compute_capability_minor                    0 # Minor compute capability version number
-gpgpu_flush_l1_cache                    1 # Flush L1 cache at the end of each kernel call
-gpgpu_flush_l2_cache                    0 # Flush L2 cache at the end of each kernel call
-gpgpu_deadlock_detect                    1 # Stop the simulation at deadlock (1=on (default), 0=off)
-gpgpu_ptx_instruction_classification                    0 # if enabled will classify ptx instruction types per kernel (Max 255 kernels now)
-gpgpu_ptx_sim_mode                     0 # Select between Performance (default) or Functional simulation (1)
-gpgpu_clock_domains 1200.0:1200.0:1200.0:850.0 # Clock Domain Frequencies in MhZ {<Core Clock>:<ICNT Clock>:<L2 Clock>:<DRAM Clock>}
-gpgpu_max_concurrent_kernel                    8 # maximum kernels that can run concurrently on GPU
-gpgpu_cflog_interval                    0 # Interval between each snapshot in control flow logger
-visualizer_enabled                     0 # Turn on visualizer output (1=On, 0=Off)
-visualizer_outputfile                 NULL # Specifies the output log file for visualizer
-visualizer_zlevel                      6 # Compression level of the visualizer output log (0=no comp, 9=highest)
-gpgpu_stack_size_limit                 1024 # GPU thread stack size
-gpgpu_heap_size_limit              8388608 # GPU malloc heap size 
-gpgpu_runtime_sync_depth_limit                    2 # GPU device runtime synchronize depth
-gpgpu_runtime_pending_launch_count_limit                 2048 # GPU device runtime pending launch count
-trace_enabled                          0 # Turn on traces
-trace_components                    none # comma seperated list of traces to enable. Complete list found in trace_streams.tup. Default none
-trace_sampling_core                    0 # The core which is printed using CORE_DPRINTF. Default 0
-trace_sampling_memory_partition                   -1 # The memory partition which is printed using MEMPART_DPRINTF. Default -1 (i.e. all)
-enable_ptx_file_line_stats                    1 # Turn on PTX source line statistic profiling. (1 = On)
-ptx_line_stats_filename gpgpu_inst_stats.txt # Output file for PTX source line statistics.
-gpgpu_kernel_launch_latency                    0 # Kernel launch latency in cycles. Default: 0
-gpgpu_cdp_enabled                      0 # Turn on CDP
DRAM Timing Options:
nbk                                    16 # number of banks
CCD                                     1 # column to column delay
RRD                                     3 # minimal delay between activation of rows in different banks
RCD                                    12 # row to column delay
RAS                                    28 # time needed to activate row
RP                                     12 # time needed to precharge (deactivate) row
RC                                     40 # row cycle time
CDLR                                    3 # switching from write to read (changes tWTR)
WR                                     10 # last data-in to row precharge
CL                                     12 # CAS latency
WL                                      2 # Write latency
nbkgrp                                  4 # number of bank groups
CCDL                                    2 # column to column delay between accesses to different bank groups
RTPL                                    3 # read to precharge delay between accesses to different bank groups
Total number of memory sub partition = 48
addr_dec_mask[CHIP]  = 0000000000000000 	high:64 low:0
addr_dec_mask[BK]    = 0000000000007100 	high:15 low:8
addr_dec_mask[ROW]   = 000000000fff8000 	high:28 low:15
addr_dec_mask[COL]   = 0000000000000eff 	high:12 low:0
addr_dec_mask[BURST] = 000000000000001f 	high:5 low:0
sub_partition_id_mask = 0000000000000100
GPGPU-Sim uArch: clock freqs: 1200000000.000000:1200000000.000000:1200000000.000000:850000000.000000
GPGPU-Sim uArch: clock periods: 0.00000000083333333333:0.00000000083333333333:0.00000000083333333333:0.00000000117647058824
*** Initializing Memory Statistics ***
rohan tlb config lines 64rohan tlb latnecy 20rohan tlb config lines 64rohan tlb latnecy 20GPGPU-Sim uArch: interconnect node map (shaderID+MemID to icntID)
GPGPU-Sim uArch: Memory nodes ID start from index: 40
GPGPU-Sim uArch:    0   1   2   3   4   5   6   7   8
GPGPU-Sim uArch:    9  10  11  12  13  14  15  16  17
GPGPU-Sim uArch:   18  19  20  21  22  23  24  25  26
GPGPU-Sim uArch:   27  28  29  30  31  32  33  34  35
GPGPU-Sim uArch:   36  37  38  39  40  41  42  43  44
GPGPU-Sim uArch:   45  46  47  48  49  50  51  52  53
GPGPU-Sim uArch:   54  55  56  57  58  59  60  61  62
GPGPU-Sim uArch:   63  64  65  66  67  68  69  70  71
GPGPU-Sim uArch:   72  73  74  75  76  77  78  79  80
GPGPU-Sim uArch:   81  82  83  84  85  86  87
GPGPU-Sim uArch: interconnect node reverse map (icntID to shaderID+MemID)
GPGPU-Sim uArch: Memory nodes start from ID: 40
GPGPU-Sim uArch:    0   1   2   3   4   5   6   7   8
GPGPU-Sim uArch:    9  10  11  12  13  14  15  16  17
GPGPU-Sim uArch:   18  19  20  21  22  23  24  25  26
GPGPU-Sim uArch:   27  28  29  30  31  32  33  34  35
GPGPU-Sim uArch:   36  37  38  39  40  41  42  43  44
GPGPU-Sim uArch:   45  46  47  48  49  50  51  52  53
GPGPU-Sim uArch:   54  55  56  57  58  59  60  61  62
GPGPU-Sim uArch:   63  64  65  66  67  68  69  70  71
GPGPU-Sim uArch:   72  73  74  75  76  77  78  79  80
GPGPU-Sim uArch:   81  82  83  84  85  86  87
3dd2d4fa578ede62d1bb34557bb85b5d  /var/lib/condor/execute/slot1/dir_23968/pagerank
Extracting PTX file and ptxas options    1: pagerank.1.sm_70.ptx -arch=sm_70
GPGPU-Sim uArch: performance model initialization complete.
self exe links to: /var/lib/condor/execute/slot1/dir_23968/pagerank
self exe links to: /var/lib/condor/execute/slot1/dir_23968/pagerank
9.1
GPGPU-Sim PTX: __cudaRegisterFatBinary, fat_cubin_handle = 1, filename=default
self exe links to: /var/lib/condor/execute/slot1/dir_23968/pagerank
Running md5sum using "md5sum /var/lib/condor/execute/slot1/dir_23968/pagerank "
self exe links to: /var/lib/condor/execute/slot1/dir_23968/pagerank
Extracting specific PTX file named pagerank.1.sm_70.ptx 
GPGPU-Sim PTX: __cudaRegisterFunction _Z9inibufferPiPfS0_ii : hostFun 0x0x401910, fat_cubin_handle = 1
GPGPU-Sim PTX: Parsing pagerank.1.sm_70.ptx
GPGPU-Sim PTX: instruction assembly for function '_Z9pagerank1PiS_S_PfS0_ii'...   done.
GPGPU-Sim PTX: instruction assembly for function '_Z9pagerank2PiS_S_PfS0_ii'...   done.
GPGPU-Sim PTX: instruction assembly for function '_Z9inibufferPiPfS0_ii'...   done.
GPGPU-Sim PTX: finished parsing EMBEDDED .ptx file pagerank.1.sm_70.ptx
GPGPU-Sim PTX: loading globals with explicit initializers... 
GPGPU-Sim PTX: finished loading globals (0 bytes total).
GPGPU-Sim PTX: loading constants with explicit initializers...  done.
GPGPU-Sim PTX: Loading PTXInfo from pagerank.1.sm_70.ptx
GPGPU-Sim PTX: Kernel '_Z9inibufferPiPfS0_ii' : regs=14, lmem=0, smem=0, cmem=384
GPGPU-Sim PTX: Kernel '_Z9pagerank2PiS_S_PfS0_ii' : regs=18, lmem=0, smem=0, cmem=432
GPGPU-Sim PTX: Kernel '_Z9pagerank1PiS_S_PfS0_ii' : regs=26, lmem=0, smem=0, cmem=400
GPGPU-Sim PTX: __cudaRegisterFunction _Z9pagerank2PiS_S_PfS0_ii : hostFun 0x0x401b10, fat_cubin_handle = 1
GPGPU-Sim PTX: __cudaRegisterFunction _Z9pagerank1PiS_S_PfS0_ii : hostFun 0x0x4019f0, fat_cubin_handle = 1
Opening file: coAuthorsDBLP.graph
This is an undirected graph
Read from file: num_nodes = 299067, num_edges = 1955352
Graph: coAuthorsDBLP.graph, nodes: 299067, edges: 1955352
GPGPU-Sim PTX: Setting up arguments for 8 bytes starting at 0x7ffe2c78e368..
GPGPU-Sim PTX: Setting up arguments for 8 bytes starting at 0x7ffe2c78e360..
GPGPU-Sim PTX: Setting up arguments for 8 bytes starting at 0x7ffe2c78e358..
GPGPU-Sim PTX: Setting up arguments for 4 bytes starting at 0x7ffe2c78e354..
GPGPU-Sim PTX: Setting up arguments for 4 bytes starting at 0x7ffe2c78e350..

GPGPU-Sim PTX: cudaLaunch for 0x0x401910 (mode=performance simulation) on stream 0
GPGPU-Sim PTX: finding reconvergence points for '_Z9inibufferPiPfS0_ii'...
GPGPU-Sim PTX: Finding dominators for '_Z9inibufferPiPfS0_ii'...
GPGPU-Sim PTX: Finding immediate dominators for '_Z9inibufferPiPfS0_ii'...
GPGPU-Sim PTX: Finding postdominators for '_Z9inibufferPiPfS0_ii'...
GPGPU-Sim PTX: Finding immediate postdominators for '_Z9inibufferPiPfS0_ii'...
GPGPU-Sim PTX: pre-decoding instructions for '_Z9inibufferPiPfS0_ii'...
GPGPU-Sim PTX: reconvergence points for _Z9inibufferPiPfS0_ii...
GPGPU-Sim PTX:  1 (potential) branch divergence @  PC=0x408 (pagerank.1.sm_70.ptx:219) @%p1 bra BB2_2;
GPGPU-Sim PTX:    immediate post dominator      @  PC=0x460 (pagerank.1.sm_70.ptx:233) ret;
GPGPU-Sim PTX: ... end of reconvergence points for _Z9inibufferPiPfS0_ii
GPGPU-Sim PTX: ... done pre-decoding instructions for '_Z9inibufferPiPfS0_ii'.
GPGPU-Sim PTX: pushing kernel '_Z9inibufferPiPfS0_ii' to stream 0, gridDim= (1169,1,1) blockDim = (256,1,1) 
GPGPU-Sim uArch: Shader 0 bind to kernel 1 '_Z9inibufferPiPfS0_ii'
GPGPU-Sim uArch: CTA/core = 8, limited by: threads
GPGPU-Sim: Reconfigure L1 cache in Volta Archi to 128KB
GPGPU-Sim uArch: Shader 2 bind to kernel 1 '_Z9inibufferPiPfS0_ii'
GPGPU-Sim uArch: Shader 4 bind to kernel 1 '_Z9inibufferPiPfS0_ii'
GPGPU-Sim uArch: Shader 6 bind to kernel 1 '_Z9inibufferPiPfS0_ii'
GPGPU-Sim uArch: Shader 8 bind to kernel 1 '_Z9inibufferPiPfS0_ii'
GPGPU-Sim uArch: Shader 10 bind to kernel 1 '_Z9inibufferPiPfS0_ii'
GPGPU-Sim uArch: Shader 12 bind to kernel 1 '_Z9inibufferPiPfS0_ii'
GPGPU-Sim uArch: Shader 14 bind to kernel 1 '_Z9inibufferPiPfS0_ii'
GPGPU-Sim uArch: Shader 16 bind to kernel 1 '_Z9inibufferPiPfS0_ii'
GPGPU-Sim uArch: Shader 18 bind to kernel 1 '_Z9inibufferPiPfS0_ii'
GPGPU-Sim uArch: Shader 20 bind to kernel 1 '_Z9inibufferPiPfS0_ii'
GPGPU-Sim uArch: Shader 22 bind to kernel 1 '_Z9inibufferPiPfS0_ii'
GPGPU-Sim uArch: Shader 24 bind to kernel 1 '_Z9inibufferPiPfS0_ii'
GPGPU-Sim uArch: Shader 26 bind to kernel 1 '_Z9inibufferPiPfS0_ii'
GPGPU-Sim uArch: Shader 28 bind to kernel 1 '_Z9inibufferPiPfS0_ii'
GPGPU-Sim uArch: Shader 30 bind to kernel 1 '_Z9inibufferPiPfS0_ii'
GPGPU-Sim uArch: Shader 32 bind to kernel 1 '_Z9inibufferPiPfS0_ii'
GPGPU-Sim uArch: Shader 34 bind to kernel 1 '_Z9inibufferPiPfS0_ii'
GPGPU-Sim uArch: Shader 36 bind to kernel 1 '_Z9inibufferPiPfS0_ii'
GPGPU-Sim uArch: Shader 38 bind to kernel 1 '_Z9inibufferPiPfS0_ii'
GPGPU-Sim uArch: Shader 40 bind to kernel 1 '_Z9inibufferPiPfS0_ii'
GPGPU-Sim uArch: Shader 42 bind to kernel 1 '_Z9inibufferPiPfS0_ii'
GPGPU-Sim uArch: Shader 44 bind to kernel 1 '_Z9inibufferPiPfS0_ii'
GPGPU-Sim uArch: Shader 46 bind to kernel 1 '_Z9inibufferPiPfS0_ii'
GPGPU-Sim uArch: Shader 48 bind to kernel 1 '_Z9inibufferPiPfS0_ii'
GPGPU-Sim uArch: Shader 50 bind to kernel 1 '_Z9inibufferPiPfS0_ii'
GPGPU-Sim uArch: Shader 52 bind to kernel 1 '_Z9inibufferPiPfS0_ii'
GPGPU-Sim uArch: Shader 54 bind to kernel 1 '_Z9inibufferPiPfS0_ii'
GPGPU-Sim uArch: Shader 56 bind to kernel 1 '_Z9inibufferPiPfS0_ii'
GPGPU-Sim uArch: Shader 58 bind to kernel 1 '_Z9inibufferPiPfS0_ii'
GPGPU-Sim uArch: Shader 60 bind to kernel 1 '_Z9inibufferPiPfS0_ii'
GPGPU-Sim uArch: Shader 62 bind to kernel 1 '_Z9inibufferPiPfS0_ii'
GPGPU-Sim uArch: Shader 64 bind to kernel 1 '_Z9inibufferPiPfS0_ii'
GPGPU-Sim uArch: Shader 66 bind to kernel 1 '_Z9inibufferPiPfS0_ii'
GPGPU-Sim uArch: Shader 68 bind to kernel 1 '_Z9inibufferPiPfS0_ii'
GPGPU-Sim uArch: Shader 70 bind to kernel 1 '_Z9inibufferPiPfS0_ii'
GPGPU-Sim uArch: Shader 72 bind to kernel 1 '_Z9inibufferPiPfS0_ii'
GPGPU-Sim uArch: Shader 74 bind to kernel 1 '_Z9inibufferPiPfS0_ii'
GPGPU-Sim uArch: Shader 76 bind to kernel 1 '_Z9inibufferPiPfS0_ii'
GPGPU-Sim uArch: Shader 78 bind to kernel 1 '_Z9inibufferPiPfS0_ii'
GPGPU-Sim uArch: Shader 1 bind to kernel 1 '_Z9inibufferPiPfS0_ii'
GPGPU-Sim uArch: Shader 3 bind to kernel 1 '_Z9inibufferPiPfS0_ii'
GPGPU-Sim uArch: Shader 5 bind to kernel 1 '_Z9inibufferPiPfS0_ii'
GPGPU-Sim uArch: Shader 7 bind to kernel 1 '_Z9inibufferPiPfS0_ii'
GPGPU-Sim uArch: Shader 9 bind to kernel 1 '_Z9inibufferPiPfS0_ii'
GPGPU-Sim uArch: Shader 11 bind to kernel 1 '_Z9inibufferPiPfS0_ii'
GPGPU-Sim uArch: Shader 13 bind to kernel 1 '_Z9inibufferPiPfS0_ii'
GPGPU-Sim uArch: Shader 15 bind to kernel 1 '_Z9inibufferPiPfS0_ii'
GPGPU-Sim uArch: Shader 17 bind to kernel 1 '_Z9inibufferPiPfS0_ii'
GPGPU-Sim uArch: Shader 19 bind to kernel 1 '_Z9inibufferPiPfS0_ii'
GPGPU-Sim uArch: Shader 21 bind to kernel 1 '_Z9inibufferPiPfS0_ii'
GPGPU-Sim uArch: Shader 23 bind to kernel 1 '_Z9inibufferPiPfS0_ii'
GPGPU-Sim uArch: Shader 25 bind to kernel 1 '_Z9inibufferPiPfS0_ii'
GPGPU-Sim uArch: Shader 27 bind to kernel 1 '_Z9inibufferPiPfS0_ii'
GPGPU-Sim uArch: Shader 29 bind to kernel 1 '_Z9inibufferPiPfS0_ii'
GPGPU-Sim uArch: Shader 31 bind to kernel 1 '_Z9inibufferPiPfS0_ii'
GPGPU-Sim uArch: Shader 33 bind to kernel 1 '_Z9inibufferPiPfS0_ii'
GPGPU-Sim uArch: Shader 35 bind to kernel 1 '_Z9inibufferPiPfS0_ii'
GPGPU-Sim uArch: Shader 37 bind to kernel 1 '_Z9inibufferPiPfS0_ii'
GPGPU-Sim uArch: Shader 39 bind to kernel 1 '_Z9inibufferPiPfS0_ii'
GPGPU-Sim uArch: Shader 41 bind to kernel 1 '_Z9inibufferPiPfS0_ii'
GPGPU-Sim uArch: Shader 43 bind to kernel 1 '_Z9inibufferPiPfS0_ii'
GPGPU-Sim uArch: Shader 45 bind to kernel 1 '_Z9inibufferPiPfS0_ii'
GPGPU-Sim uArch: Shader 47 bind to kernel 1 '_Z9inibufferPiPfS0_ii'
GPGPU-Sim uArch: Shader 49 bind to kernel 1 '_Z9inibufferPiPfS0_ii'
GPGPU-Sim uArch: Shader 51 bind to kernel 1 '_Z9inibufferPiPfS0_ii'
GPGPU-Sim uArch: Shader 53 bind to kernel 1 '_Z9inibufferPiPfS0_ii'
GPGPU-Sim uArch: Shader 55 bind to kernel 1 '_Z9inibufferPiPfS0_ii'
GPGPU-Sim uArch: Shader 57 bind to kernel 1 '_Z9inibufferPiPfS0_ii'
GPGPU-Sim uArch: Shader 59 bind to kernel 1 '_Z9inibufferPiPfS0_ii'
GPGPU-Sim uArch: Shader 61 bind to kernel 1 '_Z9inibufferPiPfS0_ii'
GPGPU-Sim uArch: Shader 63 bind to kernel 1 '_Z9inibufferPiPfS0_ii'
GPGPU-Sim uArch: Shader 65 bind to kernel 1 '_Z9inibufferPiPfS0_ii'
GPGPU-Sim uArch: Shader 67 bind to kernel 1 '_Z9inibufferPiPfS0_ii'
GPGPU-Sim uArch: Shader 69 bind to kernel 1 '_Z9inibufferPiPfS0_ii'
GPGPU-Sim uArch: Shader 71 bind to kernel 1 '_Z9inibufferPiPfS0_ii'
GPGPU-Sim uArch: Shader 73 bind to kernel 1 '_Z9inibufferPiPfS0_ii'
GPGPU-Sim uArch: Shader 75 bind to kernel 1 '_Z9inibufferPiPfS0_ii'
GPGPU-Sim uArch: Shader 77 bind to kernel 1 '_Z9inibufferPiPfS0_ii'
GPGPU-Sim uArch: Shader 79 bind to kernel 1 '_Z9inibufferPiPfS0_ii'
Destroy streams for kernel 1: size 0
kernel_name = _Z9inibufferPiPfS0_ii 
kernel_launch_uid = 1 
gpu_sim_cycle = 7140
gpu_sim_insn = 5684243
gpu_ipc =     796.1125
gpu_tot_sim_cycle = 7140
gpu_tot_sim_insn = 5684243
gpu_tot_ipc =     796.1125
gpu_tot_issued_cta = 1169
gpu_occupancy = 80.9482% 
gpu_tot_occupancy = 80.9482% 
max_total_param_size = 0
gpu_stall_dramfull = 653
gpu_stall_icnt2sh    = 0
partiton_level_parallism =      10.5053
partiton_level_parallism_total  =      10.5053
partiton_level_parallism_util =      12.6917
partiton_level_parallism_util_total  =      12.6917
L2_BW  =     406.4161 GB/Sec
L2_BW_total  =     406.4161 GB/Sec
gpu_total_sim_rate=16194

========= Core cache stats =========
L1I_cache:
	L1I_total_cache_accesses = 93496
	L1I_total_cache_misses = 7680
	L1I_total_cache_miss_rate = 0.0821
	L1I_total_cache_pending_hits = 0
	L1I_total_cache_reservation_fails = 51536
L1D_cache:
	L1D_cache_core[0]: Access = 1984, Miss = 1984, Miss_rate = 1.000, Pending_hits = 0, Reservation_fails = 0
	L1D_cache_core[1]: Access = 1920, Miss = 1920, Miss_rate = 1.000, Pending_hits = 0, Reservation_fails = 0
	L1D_cache_core[2]: Access = 1920, Miss = 1920, Miss_rate = 1.000, Pending_hits = 0, Reservation_fails = 0
	L1D_cache_core[3]: Access = 1856, Miss = 1856, Miss_rate = 1.000, Pending_hits = 0, Reservation_fails = 0
	L1D_cache_core[4]: Access = 1920, Miss = 1920, Miss_rate = 1.000, Pending_hits = 0, Reservation_fails = 0
	L1D_cache_core[5]: Access = 1920, Miss = 1920, Miss_rate = 1.000, Pending_hits = 0, Reservation_fails = 0
	L1D_cache_core[6]: Access = 1920, Miss = 1920, Miss_rate = 1.000, Pending_hits = 0, Reservation_fails = 0
	L1D_cache_core[7]: Access = 1920, Miss = 1920, Miss_rate = 1.000, Pending_hits = 0, Reservation_fails = 0
	L1D_cache_core[8]: Access = 1984, Miss = 1984, Miss_rate = 1.000, Pending_hits = 0, Reservation_fails = 0
	L1D_cache_core[9]: Access = 1920, Miss = 1920, Miss_rate = 1.000, Pending_hits = 0, Reservation_fails = 0
	L1D_cache_core[10]: Access = 1856, Miss = 1856, Miss_rate = 1.000, Pending_hits = 0, Reservation_fails = 0
	L1D_cache_core[11]: Access = 1856, Miss = 1856, Miss_rate = 1.000, Pending_hits = 0, Reservation_fails = 0
	L1D_cache_core[12]: Access = 1920, Miss = 1920, Miss_rate = 1.000, Pending_hits = 0, Reservation_fails = 0
	L1D_cache_core[13]: Access = 1920, Miss = 1920, Miss_rate = 1.000, Pending_hits = 0, Reservation_fails = 0
	L1D_cache_core[14]: Access = 1920, Miss = 1920, Miss_rate = 1.000, Pending_hits = 0, Reservation_fails = 0
	L1D_cache_core[15]: Access = 1920, Miss = 1920, Miss_rate = 1.000, Pending_hits = 0, Reservation_fails = 0
	L1D_cache_core[16]: Access = 1920, Miss = 1920, Miss_rate = 1.000, Pending_hits = 0, Reservation_fails = 0
	L1D_cache_core[17]: Access = 1856, Miss = 1856, Miss_rate = 1.000, Pending_hits = 0, Reservation_fails = 0
	L1D_cache_core[18]: Access = 1856, Miss = 1856, Miss_rate = 1.000, Pending_hits = 0, Reservation_fails = 0
	L1D_cache_core[19]: Access = 1856, Miss = 1856, Miss_rate = 1.000, Pending_hits = 0, Reservation_fails = 0
	L1D_cache_core[20]: Access = 1920, Miss = 1920, Miss_rate = 1.000, Pending_hits = 0, Reservation_fails = 0
	L1D_cache_core[21]: Access = 1920, Miss = 1920, Miss_rate = 1.000, Pending_hits = 0, Reservation_fails = 0
	L1D_cache_core[22]: Access = 1920, Miss = 1920, Miss_rate = 1.000, Pending_hits = 0, Reservation_fails = 0
	L1D_cache_core[23]: Access = 1920, Miss = 1920, Miss_rate = 1.000, Pending_hits = 0, Reservation_fails = 0
	L1D_cache_core[24]: Access = 1920, Miss = 1920, Miss_rate = 1.000, Pending_hits = 0, Reservation_fails = 0
	L1D_cache_core[25]: Access = 1920, Miss = 1920, Miss_rate = 1.000, Pending_hits = 0, Reservation_fails = 0
	L1D_cache_core[26]: Access = 1856, Miss = 1856, Miss_rate = 1.000, Pending_hits = 0, Reservation_fails = 0
	L1D_cache_core[27]: Access = 1872, Miss = 1872, Miss_rate = 1.000, Pending_hits = 0, Reservation_fails = 0
	L1D_cache_core[28]: Access = 1792, Miss = 1792, Miss_rate = 1.000, Pending_hits = 0, Reservation_fails = 0
	L1D_cache_core[29]: Access = 1792, Miss = 1792, Miss_rate = 1.000, Pending_hits = 0, Reservation_fails = 0
	L1D_cache_core[30]: Access = 1792, Miss = 1792, Miss_rate = 1.000, Pending_hits = 0, Reservation_fails = 0
	L1D_cache_core[31]: Access = 1792, Miss = 1792, Miss_rate = 1.000, Pending_hits = 0, Reservation_fails = 0
	L1D_cache_core[32]: Access = 1792, Miss = 1792, Miss_rate = 1.000, Pending_hits = 0, Reservation_fails = 0
	L1D_cache_core[33]: Access = 1792, Miss = 1792, Miss_rate = 1.000, Pending_hits = 0, Reservation_fails = 0
	L1D_cache_core[34]: Access = 1792, Miss = 1792, Miss_rate = 1.000, Pending_hits = 0, Reservation_fails = 0
	L1D_cache_core[35]: Access = 1792, Miss = 1792, Miss_rate = 1.000, Pending_hits = 0, Reservation_fails = 0
	L1D_cache_core[36]: Access = 1728, Miss = 1728, Miss_rate = 1.000, Pending_hits = 0, Reservation_fails = 0
	L1D_cache_core[37]: Access = 1792, Miss = 1792, Miss_rate = 1.000, Pending_hits = 0, Reservation_fails = 0
	L1D_cache_core[38]: Access = 1728, Miss = 1728, Miss_rate = 1.000, Pending_hits = 0, Reservation_fails = 0
	L1D_cache_core[39]: Access = 1792, Miss = 1792, Miss_rate = 1.000, Pending_hits = 0, Reservation_fails = 0
	L1D_total_cache_accesses = 74768
	L1D_total_cache_misses = 74768
	L1D_total_cache_miss_rate = 1.0000
	L1D_total_cache_pending_hits = 0
	L1D_total_cache_reservation_fails = 0
	L1D_cache_data_port_util = 0.000
	L1D_cache_fill_port_util = 0.000
L1C_cache:
	L1C_total_cache_accesses = 28056
	L1C_total_cache_misses = 5120
	L1C_total_cache_miss_rate = 0.1825
	L1C_total_cache_pending_hits = 0
	L1C_total_cache_reservation_fails = 45712
L1T_cache:
	L1T_total_cache_accesses = 0
	L1T_total_cache_misses = 0
	L1T_total_cache_pending_hits = 0
	L1T_total_cache_reservation_fails = 0
tlb_cache:
	TLB_total_cache_accesses = 0
	TLB_total_cache_misses = 0
	TLB_total_cache_pending_hits = 0
	TLB_total_cache_reservation_fails = 0

Total_core_cache_stats:
	Total_core_cache_stats_breakdown[GLOBAL_ACC_R][HIT] = 0
	Total_core_cache_stats_breakdown[GLOBAL_ACC_R][HIT_RESERVED] = 0
	Total_core_cache_stats_breakdown[GLOBAL_ACC_R][MISS] = 0
	Total_core_cache_stats_breakdown[GLOBAL_ACC_R][RESERVATION_FAIL] = 0
	Total_core_cache_stats_breakdown[GLOBAL_ACC_R][SECTOR_MISS] = 0
	Total_core_cache_stats_breakdown[LOCAL_ACC_R][HIT] = 0
	Total_core_cache_stats_breakdown[LOCAL_ACC_R][HIT_RESERVED] = 0
	Total_core_cache_stats_breakdown[LOCAL_ACC_R][MISS] = 0
	Total_core_cache_stats_breakdown[LOCAL_ACC_R][RESERVATION_FAIL] = 0
	Total_core_cache_stats_breakdown[LOCAL_ACC_R][SECTOR_MISS] = 0
	Total_core_cache_stats_breakdown[CONST_ACC_R][HIT] = 22936
	Total_core_cache_stats_breakdown[CONST_ACC_R][HIT_RESERVED] = 0
	Total_core_cache_stats_breakdown[CONST_ACC_R][MISS] = 5120
	Total_core_cache_stats_breakdown[CONST_ACC_R][RESERVATION_FAIL] = 45712
	Total_core_cache_stats_breakdown[CONST_ACC_R][SECTOR_MISS] = 0
	Total_core_cache_stats_breakdown[TEXTURE_ACC_R][HIT] = 0
	Total_core_cache_stats_breakdown[TEXTURE_ACC_R][HIT_RESERVED] = 0
	Total_core_cache_stats_breakdown[TEXTURE_ACC_R][MISS] = 0
	Total_core_cache_stats_breakdown[TEXTURE_ACC_R][RESERVATION_FAIL] = 0
	Total_core_cache_stats_breakdown[TEXTURE_ACC_R][SECTOR_MISS] = 0
	Total_core_cache_stats_breakdown[GLOBAL_ACC_W][HIT] = 0
	Total_core_cache_stats_breakdown[GLOBAL_ACC_W][HIT_RESERVED] = 0
	Total_core_cache_stats_breakdown[GLOBAL_ACC_W][MISS] = 74768
	Total_core_cache_stats_breakdown[GLOBAL_ACC_W][RESERVATION_FAIL] = 0
	Total_core_cache_stats_breakdown[GLOBAL_ACC_W][SECTOR_MISS] = 0
	Total_core_cache_stats_breakdown[LOCAL_ACC_W][HIT] = 0
	Total_core_cache_stats_breakdown[LOCAL_ACC_W][HIT_RESERVED] = 0
	Total_core_cache_stats_breakdown[LOCAL_ACC_W][MISS] = 0
	Total_core_cache_stats_breakdown[LOCAL_ACC_W][RESERVATION_FAIL] = 0
	Total_core_cache_stats_breakdown[LOCAL_ACC_W][SECTOR_MISS] = 0
	Total_core_cache_stats_breakdown[L1_WRBK_ACC][HIT] = 0
	Total_core_cache_stats_breakdown[L1_WRBK_ACC][HIT_RESERVED] = 0
	Total_core_cache_stats_breakdown[L1_WRBK_ACC][MISS] = 0
	Total_core_cache_stats_breakdown[L1_WRBK_ACC][RESERVATION_FAIL] = 0
	Total_core_cache_stats_breakdown[L1_WRBK_ACC][SECTOR_MISS] = 0
	Total_core_cache_stats_breakdown[L2_WRBK_ACC][HIT] = 0
	Total_core_cache_stats_breakdown[L2_WRBK_ACC][HIT_RESERVED] = 0
	Total_core_cache_stats_breakdown[L2_WRBK_ACC][MISS] = 0
	Total_core_cache_stats_breakdown[L2_WRBK_ACC][RESERVATION_FAIL] = 0
	Total_core_cache_stats_breakdown[L2_WRBK_ACC][SECTOR_MISS] = 0
	Total_core_cache_stats_breakdown[INST_ACC_R][HIT] = 85816
	Total_core_cache_stats_breakdown[INST_ACC_R][HIT_RESERVED] = 0
	Total_core_cache_stats_breakdown[INST_ACC_R][MISS] = 7680
	Total_core_cache_stats_breakdown[INST_ACC_R][RESERVATION_FAIL] = 51536
	Total_core_cache_stats_breakdown[INST_ACC_R][SECTOR_MISS] = 0
	Total_core_cache_stats_breakdown[L1_WR_ALLOC_R][HIT] = 0
	Total_core_cache_stats_breakdown[L1_WR_ALLOC_R][HIT_RESERVED] = 0
	Total_core_cache_stats_breakdown[L1_WR_ALLOC_R][MISS] = 0
	Total_core_cache_stats_breakdown[L1_WR_ALLOC_R][RESERVATION_FAIL] = 0
	Total_core_cache_stats_breakdown[L1_WR_ALLOC_R][SECTOR_MISS] = 0
	Total_core_cache_stats_breakdown[L2_WR_ALLOC_R][HIT] = 0
	Total_core_cache_stats_breakdown[L2_WR_ALLOC_R][HIT_RESERVED] = 0
	Total_core_cache_stats_breakdown[L2_WR_ALLOC_R][MISS] = 0
	Total_core_cache_stats_breakdown[L2_WR_ALLOC_R][RESERVATION_FAIL] = 0
	Total_core_cache_stats_breakdown[L2_WR_ALLOC_R][SECTOR_MISS] = 0
	Total_core_cache_stats_breakdown[CONST_ACC_R][TOTAL_ACCESS] = 28056
	Total_core_cache_stats_breakdown[GLOBAL_ACC_W][TOTAL_ACCESS] = 74768
	Total_core_cache_stats_breakdown[INST_ACC_R][TOTAL_ACCESS] = 93496

Total_core_cache_fail_stats:
	Total_core_cache_fail_stats_breakdown[CONST_ACC_R][MSHR_MERGE_ENRTY_FAIL] = 45712
	Total_core_cache_fail_stats_breakdown[INST_ACC_R][MSHR_MERGE_ENRTY_FAIL] = 51536
Shader 0 warp_id issue ditsribution:
warp_id:
0, 1, 2, 3, 4, 5, 6, 7, 8, 9, 10, 11, 12, 13, 14, 15, 16, 17, 18, 19, 20, 21, 22, 23, 24, 25, 26, 27, 28, 29, 30, 31, 32, 33, 34, 35, 36, 37, 38, 39, 40, 41, 42, 43, 44, 45, 46, 47, 48, 49, 50, 51, 52, 53, 54, 55, 56, 57, 58, 59, 60, 61, 62, 63, 
distro:
40, 40, 40, 40, 40, 40, 40, 40, 40, 40, 40, 40, 40, 40, 40, 40, 40, 40, 40, 40, 40, 40, 40, 40, 40, 40, 40, 40, 40, 40, 40, 40, 40, 40, 40, 40, 40, 40, 40, 40, 40, 40, 40, 40, 40, 40, 40, 40, 40, 40, 40, 40, 40, 40, 40, 40, 40, 40, 40, 40, 40, 40, 40, 40, 
gpgpu_n_tot_thrd_icount = 5983360
gpgpu_n_tot_w_icount = 186980
gpgpu_n_stall_shd_mem = 1597148
gpgpu_n_mem_read_local = 0
gpgpu_n_mem_write_local = 0
gpgpu_n_mem_read_global = 0
gpgpu_n_mem_write_global = 74768
gpgpu_n_mem_texture = 0
gpgpu_n_mem_const = 80
gpgpu_n_load_insn  = 0
gpgpu_n_store_insn = 598134
gpgpu_n_shmem_insn = 0
gpgpu_n_sstarr_insn = 0
gpgpu_n_tex_insn = 0
gpgpu_n_const_mem_insn = 0
gpgpu_n_param_mem_insn = 897792
gpgpu_n_shmem_bkconflict = 0
gpgpu_n_cache_bkconflict = 0
gpgpu_n_intrawarp_mshr_merge = 0
gpgpu_n_cmem_portconflict = 45712
gpgpu_stall_shd_mem[c_mem][resource_stall] = 0
gpgpu_stall_shd_mem[s_mem][bk_conf] = 0
gpgpu_stall_shd_mem[gl_mem][resource_stall] = 0
gpgpu_stall_shd_mem[gl_mem][coal_stall] = 0
gpgpu_stall_shd_mem[gl_mem][data_port_stall] = 0
gpu_reg_bank_conflict_stalls = 0
Warp Occupancy Distribution:
Stall:1463032	W0_Idle:401131	W0_Scoreboard:69477	W1:0	W2:0	W3:0	W4:0	W5:0	W6:0	W7:0	W8:0	W9:0	W10:0	W11:0	W12:0	W13:0	W14:0	W15:0	W16:0	W17:0	W18:0	W19:0	W20:0	W21:0	W22:0	W23:0	W24:0	W25:0	W26:0	W27:10	W28:0	W29:0	W30:0	W31:0	W32:186970
single_issue_nums: WS0:46750	WS1:46750	WS2:46740	WS3:46740	
dual_issue_nums: WS0:0	WS1:0	WS2:0	WS3:0	
traffic_breakdown_coretomem[CONST_ACC_R] = 640 {8:80,}
traffic_breakdown_coretomem[GLOBAL_ACC_W] = 2990720 {40:74768,}
traffic_breakdown_coretomem[INST_ACC_R] = 1280 {8:160,}
traffic_breakdown_memtocore[CONST_ACC_R] = 6400 {40:160,}
traffic_breakdown_memtocore[GLOBAL_ACC_W] = 598144 {8:74768,}
traffic_breakdown_memtocore[INST_ACC_R] = 25600 {40:640,}
maxmflatency = 277 
max_icnt2mem_latency = 85 
maxmrqlatency = 21 
max_icnt2sh_latency = 7 
averagemflatency = 143 
avg_icnt2mem_latency = 14 
avg_mrq_latency = 14 
avg_icnt2sh_latency = 7 
mrq_lat_table:3 	0 	0 	0 	7 	0 	0 	0 	0 	0 	0 	0 	0 	0 	0 	0 	0 	0 	0 	0 	0 	0 	0 	0 	0 	0 	0 	0 	0 	0 	0 	0 	
dq_lat_table:0 	0 	0 	0 	0 	0 	0 	0 	0 	0 	0 	0 	0 	0 	0 	0 	0 	0 	0 	0 	0 	0 	0 	0 	0 	0 	0 	0 	0 	0 	0 	0 	
mf_lat_table:0 	0 	0 	0 	0 	0 	0 	74905 	23 	0 	0 	0 	0 	0 	0 	0 	0 	0 	0 	0 	0 	0 	0 	0 	0 	0 	0 	0 	0 	0 	0 	0 	
icnt2mem_lat_table:0 	0 	152 	67436 	7365 	33 	22 	0 	0 	0 	0 	0 	0 	0 	0 	0 	0 	0 	0 	0 	0 	0 	0 	0 	
icnt2sh_lat_table:0 	0 	74928 	0 	0 	0 	0 	0 	0 	0 	0 	0 	0 	0 	0 	0 	0 	0 	0 	0 	0 	0 	0 	0 	
mf_lat_pw_table:0 	0 	0 	0 	0 	0 	0 	13 	0 	0 	0 	0 	0 	0 	0 	0 	0 	0 	0 	0 	0 	0 	0 	0 	0 	0 	0 	0 	0 	0 	0 	0 	
maximum concurrent accesses to same row:
dram[0]:         0         0         0         0         0         0         0         0         0         0         0         0         0         0         0         0 
dram[1]:         0         0         0         0         0         0         0         0         0         0         0         0         0         0         0         0 
dram[2]:         0         0         0         0         0         0         0         0         0         0         0         0         0         0         0         0 
dram[3]:         0         0         0         0         0         0         0         0         0         0         0         0         0         0         0         0 
dram[4]:         0         0         0         0         0         0         0         0         0         0         0         0         0         0         0         0 
dram[5]:         0         0         0         0         0         0         0         0         0         0         0         0         0         0         0         0 
dram[6]:         0         0         0         0         0         0         0         0         0         0         0         0         0         0         0         0 
dram[7]:         0         0         0         0         0         0         0         0         0         0         0         0         0         0         0         0 
dram[8]:         0         0         0         0         0         0         0         0         0         0         0         0         0         0         0         0 
dram[9]:         0         0         0         0         0         0         0         0         0         0         0         0         0         0         0         0 
dram[10]:         0         0         0         0         0         0         0         0         0         0         0         0         0         0         0         0 
dram[11]:         0         0         0         0         0         0         0         0         0         0         0         0         0         0         0         0 
dram[12]:         0         0         0         0         0         0         0         0         0         0         0         0         0         0         0         0 
dram[13]:         0         0         0         0         0         0         0         0         0         0         0         0         0         0         0         0 
dram[14]:         0         0         0         0         0         0         0         0         0         0         0         0         0         0         0         0 
dram[15]:         0         0         0         0         0         0         0         0         0         0         0         0         0         0         0         0 
dram[16]:         0         0         0         0         0         0         0         0         0         0         0         0         0         0         0         0 
dram[17]:         0         0         0         0         0         0         0         0         0         0         0         0         0         0         0         0 
dram[18]:         0         0         0         0         0         0         0         0         0         0         0         0         0         0         0         0 
dram[19]:         0         0         0         0         0         0         0         0         0         0         0         0         0         0         0         0 
dram[20]:         0         0         0         0         0         0         0         0         0         0         0         0         0         0         0         0 
dram[21]:         0         0         0         0         0         0         0         0         0         0         0         0         0         0         0         0 
dram[22]:         0         0         0         0         0         0         0         0         0         0         0         0         0         0         0         0 
dram[23]:         0         0         0         0         0         0         0         0         0         0         0         0         0         0         0         0 
maximum service time to same row:
dram[0]:         0         0         0         0         0         0         0         0         0         0         0         0         0         0         0         0 
dram[1]:         0         0         0         0         0         0         0         0         0         0         0         0         0         0         0         0 
dram[2]:         0         0         0         0         0         0         0         0         0         0         0         0         0         0         0         0 
dram[3]:       233         0         0         0         0         0         0         0         0         0         0         0         0         0         0         0 
dram[4]:       987         0         0         0         0         0         0         0         0         0         0         0         0         0         0         0 
dram[5]:         0         0         0         0         0         0         0         0         0         0         0         0         0         0         0         0 
dram[6]:         0         0         0         0         0         0         0         0         0         0         0         0         0         0         0         0 
dram[7]:         0         0         0         0         0         0         0         0         0         0         0         0         0         0         0         0 
dram[8]:         0         0         0         0         0         0         0         0         0         0         0         0         0         0         0         0 
dram[9]:         0         0         0         0         0         0         0         0         0         0         0         0         0         0         0         0 
dram[10]:         0         0         0         0         0         0         0         0         0         0         0         0         0         0         0         0 
dram[11]:         0         0         0         0         0         0         0         0         0         0         0         0         0         0         0         0 
dram[12]:         0         0         0         0         0         0         0         0         0         0         0         0         0         0         0         0 
dram[13]:         0         0         0         0         0         0         0         0         0         0         0         0         0         0         0         0 
dram[14]:         0         0         0         0         0         0         0         0         0         0         0         0         0         0         0         0 
dram[15]:         0         0         0         0         0         0         0         0         0         0         0         0         0         0         0         0 
dram[16]:         0         0         0         0         0         0         0         0         0         0         0         0         0         0         0         0 
dram[17]:         0         0         0         0         0         0         0         0         0         0         0         0         0         0         0         0 
dram[18]:         0         0         0         0         0         0         0         0         0         0         0         0         0         0         0         0 
dram[19]:         0         0         0         0         0         0         0         0         0         0         0         0         0         0         0         0 
dram[20]:         0         0         0         0         0         0         0         0         0         0         0         0         0         0         0         0 
dram[21]:         0         0         0         0         0         0         0         0         0         0         0         0         0         0         0         0 
dram[22]:         0         0         0         0         0         0         0         0         0         0         0         0         0         0         0         0 
dram[23]:         0         0         0         0         0         0         0         0         0         0         0         0         0         0         0         0 
average row accesses per activate:
dram[0]:       inf      -nan      -nan      -nan      -nan      -nan      -nan      -nan      -nan      -nan      -nan      -nan      -nan      -nan      -nan      -nan 
dram[1]:      -nan      -nan      -nan      -nan      -nan      -nan      -nan      -nan      -nan      -nan      -nan      -nan      -nan      -nan      -nan      -nan 
dram[2]:      -nan      -nan      -nan      -nan      -nan      -nan      -nan      -nan      -nan      -nan      -nan      -nan      -nan      -nan      -nan      -nan 
dram[3]:  4.000000      -nan      -nan      -nan      -nan      -nan      -nan      -nan      -nan      -nan      -nan      -nan      -nan      -nan      -nan      -nan 
dram[4]:  4.000000      -nan      -nan      -nan      -nan      -nan      -nan      -nan      -nan      -nan      -nan      -nan      -nan      -nan      -nan      -nan 
dram[5]:      -nan      -nan      -nan      -nan      -nan      -nan      -nan      -nan      -nan      -nan      -nan      -nan      -nan      -nan      -nan      -nan 
dram[6]:      -nan      -nan      -nan      -nan      -nan      -nan      -nan      -nan      -nan      -nan      -nan      -nan      -nan      -nan      -nan      -nan 
dram[7]:      -nan      -nan      -nan      -nan      -nan      -nan      -nan      -nan      -nan      -nan      -nan      -nan      -nan      -nan      -nan      -nan 
dram[8]:      -nan      -nan      -nan      -nan      -nan      -nan      -nan      -nan      -nan      -nan      -nan      -nan      -nan      -nan      -nan      -nan 
dram[9]:      -nan      -nan      -nan      -nan      -nan      -nan      -nan      -nan      -nan      -nan      -nan      -nan      -nan      -nan      -nan      -nan 
dram[10]:      -nan      -nan      -nan      -nan      -nan      -nan      -nan      -nan      -nan      -nan      -nan      -nan      -nan      -nan      -nan      -nan 
dram[11]:      -nan      -nan      -nan      -nan      -nan      -nan      -nan      -nan      -nan      -nan      -nan      -nan      -nan      -nan      -nan      -nan 
dram[12]:      -nan      -nan      -nan      -nan      -nan      -nan      -nan      -nan      -nan      -nan      -nan      -nan      -nan      -nan      -nan      -nan 
dram[13]:      -nan      -nan      -nan      -nan      -nan      -nan      -nan      -nan      -nan      -nan      -nan      -nan      -nan      -nan      -nan      -nan 
dram[14]:      -nan      -nan      -nan      -nan      -nan      -nan      -nan      -nan      -nan      -nan      -nan      -nan      -nan      -nan      -nan      -nan 
dram[15]:      -nan      -nan      -nan      -nan      -nan      -nan      -nan      -nan      -nan      -nan      -nan      -nan      -nan      -nan      -nan      -nan 
dram[16]:      -nan      -nan      -nan      -nan      -nan      -nan      -nan      -nan      -nan      -nan      -nan      -nan      -nan      -nan      -nan      -nan 
dram[17]:      -nan      -nan      -nan      -nan      -nan      -nan      -nan      -nan      -nan      -nan      -nan      -nan      -nan      -nan      -nan      -nan 
dram[18]:      -nan      -nan      -nan      -nan      -nan      -nan      -nan      -nan      -nan      -nan      -nan      -nan      -nan      -nan      -nan      -nan 
dram[19]:      -nan      -nan      -nan      -nan      -nan      -nan      -nan      -nan      -nan      -nan      -nan      -nan      -nan      -nan      -nan      -nan 
dram[20]:      -nan      -nan      -nan      -nan      -nan      -nan      -nan      -nan      -nan      -nan      -nan      -nan      -nan      -nan      -nan      -nan 
dram[21]:      -nan      -nan      -nan      -nan      -nan      -nan      -nan      -nan      -nan      -nan      -nan      -nan      -nan      -nan      -nan      -nan 
dram[22]:      -nan      -nan      -nan      -nan      -nan      -nan      -nan      -nan      -nan      -nan      -nan      -nan      -nan      -nan      -nan      -nan 
dram[23]:      -nan      -nan      -nan      -nan      -nan      -nan      -nan      -nan      -nan      -nan      -nan      -nan      -nan      -nan      -nan      -nan 
average row locality = 10/2 = 5.000000
number of total memory accesses made:
dram[0]:         0         0         0         0         0         0         0         0         0         0         0         0         0         0         0         0 
dram[1]:         0         0         0         0         0         0         0         0         0         0         0         0         0         0         0         0 
dram[2]:         0         0         0         0         0         0         0         0         0         0         0         0         0         0         0         0 
dram[3]:         0         0         0         0         0         0         0         0         0         0         0         0         0         0         0         0 
dram[4]:         0         0         0         0         0         0         0         0         0         0         0         0         0         0         0         0 
dram[5]:         0         0         0         0         0         0         0         0         0         0         0         0         0         0         0         0 
dram[6]:         0         0         0         0         0         0         0         0         0         0         0         0         0         0         0         0 
dram[7]:         0         0         0         0         0         0         0         0         0         0         0         0         0         0         0         0 
dram[8]:         0         0         0         0         0         0         0         0         0         0         0         0         0         0         0         0 
dram[9]:         0         0         0         0         0         0         0         0         0         0         0         0         0         0         0         0 
dram[10]:         0         0         0         0         0         0         0         0         0         0         0         0         0         0         0         0 
dram[11]:         0         0         0         0         0         0         0         0         0         0         0         0         0         0         0         0 
dram[12]:         0         0         0         0         0         0         0         0         0         0         0         0         0         0         0         0 
dram[13]:         0         0         0         0         0         0         0         0         0         0         0         0         0         0         0         0 
dram[14]:         0         0         0         0         0         0         0         0         0         0         0         0         0         0         0         0 
dram[15]:         0         0         0         0         0         0         0         0         0         0         0         0         0         0         0         0 
dram[16]:         0         0         0         0         0         0         0         0         0         0         0         0         0         0         0         0 
dram[17]:         0         0         0         0         0         0         0         0         0         0         0         0         0         0         0         0 
dram[18]:         0         0         0         0         0         0         0         0         0         0         0         0         0         0         0         0 
dram[19]:         0         0         0         0         0         0         0         0         0         0         0         0         0         0         0         0 
dram[20]:         0         0         0         0         0         0         0         0         0         0         0         0         0         0         0         0 
dram[21]:         0         0         0         0         0         0         0         0         0         0         0         0         0         0         0         0 
dram[22]:         0         0         0         0         0         0         0         0         0         0         0         0         0         0         0         0 
dram[23]:         0         0         0         0         0         0         0         0         0         0         0         0         0         0         0         0 
total accesses: 0
min_bank_accesses = 0!
min_chip_accesses = 0!
number of total read accesses:
dram[0]:         2         0         0         0         0         0         0         0         0         0         0         0         0         0         0         0 
dram[1]:         0         0         0         0         0         0         0         0         0         0         0         0         0         0         0         0 
dram[2]:         0         0         0         0         0         0         0         0         0         0         0         0         0         0         0         0 
dram[3]:         4         0         0         0         0         0         0         0         0         0         0         0         0         0         0         0 
dram[4]:         4         0         0         0         0         0         0         0         0         0         0         0         0         0         0         0 
dram[5]:         0         0         0         0         0         0         0         0         0         0         0         0         0         0         0         0 
dram[6]:         0         0         0         0         0         0         0         0         0         0         0         0         0         0         0         0 
dram[7]:         0         0         0         0         0         0         0         0         0         0         0         0         0         0         0         0 
dram[8]:         0         0         0         0         0         0         0         0         0         0         0         0         0         0         0         0 
dram[9]:         0         0         0         0         0         0         0         0         0         0         0         0         0         0         0         0 
dram[10]:         0         0         0         0         0         0         0         0         0         0         0         0         0         0         0         0 
dram[11]:         0         0         0         0         0         0         0         0         0         0         0         0         0         0         0         0 
dram[12]:         0         0         0         0         0         0         0         0         0         0         0         0         0         0         0         0 
dram[13]:         0         0         0         0         0         0         0         0         0         0         0         0         0         0         0         0 
dram[14]:         0         0         0         0         0         0         0         0         0         0         0         0         0         0         0         0 
dram[15]:         0         0         0         0         0         0         0         0         0         0         0         0         0         0         0         0 
dram[16]:         0         0         0         0         0         0         0         0         0         0         0         0         0         0         0         0 
dram[17]:         0         0         0         0         0         0         0         0         0         0         0         0         0         0         0         0 
dram[18]:         0         0         0         0         0         0         0         0         0         0         0         0         0         0         0         0 
dram[19]:         0         0         0         0         0         0         0         0         0         0         0         0         0         0         0         0 
dram[20]:         0         0         0         0         0         0         0         0         0         0         0         0         0         0         0         0 
dram[21]:         0         0         0         0         0         0         0         0         0         0         0         0         0         0         0         0 
dram[22]:         0         0         0         0         0         0         0         0         0         0         0         0         0         0         0         0 
dram[23]:         0         0         0         0         0         0         0         0         0         0         0         0         0         0         0         0 
total dram reads = 10
min_bank_accesses = 0!
min_chip_accesses = 0!
number of total write accesses:
dram[0]:         0         0         0         0         0         0         0         0         0         0         0         0         0         0         0         0 
dram[1]:         0         0         0         0         0         0         0         0         0         0         0         0         0         0         0         0 
dram[2]:         0         0         0         0         0         0         0         0         0         0         0         0         0         0         0         0 
dram[3]:         0         0         0         0         0         0         0         0         0         0         0         0         0         0         0         0 
dram[4]:         0         0         0         0         0         0         0         0         0         0         0         0         0         0         0         0 
dram[5]:         0         0         0         0         0         0         0         0         0         0         0         0         0         0         0         0 
dram[6]:         0         0         0         0         0         0         0         0         0         0         0         0         0         0         0         0 
dram[7]:         0         0         0         0         0         0         0         0         0         0         0         0         0         0         0         0 
dram[8]:         0         0         0         0         0         0         0         0         0         0         0         0         0         0         0         0 
dram[9]:         0         0         0         0         0         0         0         0         0         0         0         0         0         0         0         0 
dram[10]:         0         0         0         0         0         0         0         0         0         0         0         0         0         0         0         0 
dram[11]:         0         0         0         0         0         0         0         0         0         0         0         0         0         0         0         0 
dram[12]:         0         0         0         0         0         0         0         0         0         0         0         0         0         0         0         0 
dram[13]:         0         0         0         0         0         0         0         0         0         0         0         0         0         0         0         0 
dram[14]:         0         0         0         0         0         0         0         0         0         0         0         0         0         0         0         0 
dram[15]:         0         0         0         0         0         0         0         0         0         0         0         0         0         0         0         0 
dram[16]:         0         0         0         0         0         0         0         0         0         0         0         0         0         0         0         0 
dram[17]:         0         0         0         0         0         0         0         0         0         0         0         0         0         0         0         0 
dram[18]:         0         0         0         0         0         0         0         0         0         0         0         0         0         0         0         0 
dram[19]:         0         0         0         0         0         0         0         0         0         0         0         0         0         0         0         0 
dram[20]:         0         0         0         0         0         0         0         0         0         0         0         0         0         0         0         0 
dram[21]:         0         0         0         0         0         0         0         0         0         0         0         0         0         0         0         0 
dram[22]:         0         0         0         0         0         0         0         0         0         0         0         0         0         0         0         0 
dram[23]:         0         0         0         0         0         0         0         0         0         0         0         0         0         0         0         0 
total dram writes = 0
min_bank_accesses = 0!
min_chip_accesses = 0!
average mf latency per bank:
dram[0]:      29605    none      none      none      none      none      none      none      none      none      none      none      none      none      none      none  
dram[1]:     none      none      none      none      none      none      none      none      none      none      none      none      none      none      none      none  
dram[2]:     none      none      none      none      none      none      none      none      none      none      none      none      none      none      none      none  
dram[3]:       6887    none      none      none      none      none      none      none      none      none      none      none      none      none      none      none  
dram[4]:       6896    none      none      none      none      none      none      none      none      none      none      none      none      none      none      none  
dram[5]:     none      none      none      none      none      none      none      none      none      none      none      none      none      none      none      none  
dram[6]:     none      none      none      none      none      none      none      none      none      none      none      none      none      none      none      none  
dram[7]:     none      none      none      none      none      none      none      none      none      none      none      none      none      none      none      none  
dram[8]:     none      none      none      none      none      none      none      none      none      none      none      none      none      none      none      none  
dram[9]:     none      none      none      none      none      none      none      none      none      none      none      none      none      none      none      none  
dram[10]:     none      none      none      none      none      none      none      none      none      none      none      none      none      none      none      none  
dram[11]:     none      none      none      none      none      none      none      none      none      none      none      none      none      none      none      none  
dram[12]:     none      none      none      none      none      none      none      none      none      none      none      none      none      none      none      none  
dram[13]:     none      none      none      none      none      none      none      none      none      none      none      none      none      none      none      none  
dram[14]:     none      none      none      none      none      none      none      none      none      none      none      none      none      none      none      none  
dram[15]:     none      none      none      none      none      none      none      none      none      none      none      none      none      none      none      none  
dram[16]:     none      none      none      none      none      none      none      none      none      none      none      none      none      none      none      none  
dram[17]:     none      none      none      none      none      none      none      none      none      none      none      none      none      none      none      none  
dram[18]:     none      none      none      none      none      none      none      none      none      none      none      none      none      none      none      none  
dram[19]:     none      none      none      none      none      none      none      none      none      none      none      none      none      none      none      none  
dram[20]:     none      none      none      none      none      none      none      none      none      none      none      none      none      none      none      none  
dram[21]:     none      none      none      none      none      none      none      none      none      none      none      none      none      none      none      none  
dram[22]:     none      none      none      none      none      none      none      none      none      none      none      none      none      none      none      none  
dram[23]:     none      none      none      none      none      none      none      none      none      none      none      none      none      none      none      none  
maximum mf latency per bank:
dram[0]:        277       149       147       145       148       146       148       147       146       146       148       146       145       147       148       146
dram[1]:        147       149       146       146       147       145       148       149       147       147       147       152       146       147       148       146
dram[2]:        146       148       146       146       147       146       147       146       146       147       146       147       147       148       148       146
dram[3]:        146       147       148       147       147       149       147       148       146       148       146       149       147       150       147       147
dram[4]:        147       150       147       149       145       147       147       147       147       146       147       147       147       147       147       147
dram[5]:        148       146       147       148       146       146       146       148       146       147       151       146       147       146       150       145
dram[6]:        148       147       147       148       146       145       147       147       147       147       148       147       147       146       147       146
dram[7]:        147       146       148       147       146       148       148       146       155       147       156       147       147       149       147       147
dram[8]:        147       146       148       147       147       147       146       148       146       145       147       147       151       147       149       147
dram[9]:        148       146       148       150       148       147       150       147       146       146       146       151       152       147       147       146
dram[10]:        146       149       147       146       148       146       146       145       146       147       146       147       147       146       147       150
dram[11]:        147       147       146       147       147       146       150       147       145       147       149       146       148       149       147       148
dram[12]:        147       147       146       146       146       146       147       150       146       147       147       151       146       147       147       151
dram[13]:        148       146       148       146       146       147       148       146       147       149       146       147       146       150       151       149
dram[14]:        148       146       148       146       150       147       151       149       145       148       147       148       149       147       150       148
dram[15]:        148       147       146       146       147       147       147       146       145       146       148       146       146       146       146       147
dram[16]:        148       146       146       147       146       146       148       146       147       150       147       148       146       146       146       147
dram[17]:        150       148       146       146       146       149       147       147       151       150       146       148       146       146       149       147
dram[18]:        147       150       146       146       146       146       147       146       146       146       146       146       146       146       146       147
dram[19]:        147       148       151       149       146       146       146       146       147       146       148       152       147       146       147       146
dram[20]:        147       148       146       146       147       146       146       146       147       146       147       146       146       146       146       146
dram[21]:        147       146       146       147       148       146       146       146       148       149       147       145       146       145       146       146
dram[22]:        147       147       147       147       147       152       146       146       146       147       147       145       147       146       146       147
dram[23]:        147       148       147       147       146       145       148       146       147       146       147       147       146       145       147       145

Number of Memory Banks Accessed per Memory Operation per Warp (from 0):
0	0	0	0	0	0	0	0	0	0	0	0	0	0	0	0	0	0	0	0	0	0	0	0	0	0	0	0	0	0	0	0	0	0	0	0	0	0	0	0	0	0	0	0	0	0	0	0	0	0	0	0	0	0	0	0	0	0	0	0	0	0	0	0	0	0	0	0	0	0	0	0	0	0	0	0	0	0	0	0	0	0	0	0	0	0	0	0	0	0	0	0	0	0	0	0	0	0	0	0	0	0	0	0	0	0	0	0	0	0	0	0	0	0	0	0	0	0	0	0	0	0	0	0	0	0	0	0	0	0	0	0	0	0	0	0	0	0	0	0	0	0	0	0	0	0	0	0	0	0	0	0	0	0	0	0	0	0	0	0	0	0	0	0	0	0	0	0	0	0	0	0	0	0	0	0	0	0	0	0	0	0	0	0	0	0	0	0	0	0	0	0	0	0	0	0	0	0	0	0	0	0	0	0	0	0	0	0	0	0	0	0	0	0	0	0	0	0	0	0	0	0	0	0	0	0	0	0	0	0	0	0	0	0	0	0	0	0	0	0	0	0	0	0	0	0	0	0	0	0	0	0	0	0	0	0	0	0	0	0	0	0	0	0	0	0	0	0	0	0	0	0	0	0	0	0	0	0	0	0	0	0	0	0	0	0	0	0	0	0	0	0	0	0	0	0	0	0	0	0	0	0	0	0	0	0	0	0	0	0	0	0	0	0	0	0	0	0	0	0	0	0	0	0	0	0	0	0	0	0	0	0	0	0	0	0	0	0	0	0	0	0	0	0	0	0	0	0	0	0	0	0	0	0	0	0	0	0	0	0	0	0	0	0	0	0	0	0	0	0	0	0	0	0	0	0	0	0	0	0	0	0	0	0	
Average # of Memory Banks Accessed per Memory Operation per Warp=-nan

position of mrq chosen
0	0	0	0	0	0	0	0	0	0	0	0	0	0	0	0	0	0	0	0	0	0	0	0	0	0	0	0	0	0	0	0	0	0	0	0	0	0	0	0	0	0	0	0	0	0	0	0	0	0	0	0	0	0	0	0	0	0	0	0	0	0	0	0	

average position of mrq chosen = -nan
Memory Partition 0: 
Cache L2_bank_000:
MSHR contents

Cache L2_bank_001:
MSHR contents

In Dram Latency Queue (total = 0): 
DRAM[0]: 16 bks, busW=16 BL=2 CL=12, tRRD=3 tCCD=1, tRCD=12 tRAS=28 tRP=12 tRC=40
n_cmd=5057 n_nop=5054 n_act=1 n_pre=0 n_ref_event=0 n_req=2 n_rd=2 n_rd_L2_A=0 n_write=0 n_wr_bk=0 bw_util=0.0003955
n_activity=40 dram_eff=0.05
bk0: 2a 5044i bk1: 0a 5057i bk2: 0a 5057i bk3: 0a 5057i bk4: 0a 5057i bk5: 0a 5057i bk6: 0a 5057i bk7: 0a 5057i bk8: 0a 5057i bk9: 0a 5057i bk10: 0a 5057i bk11: 0a 5057i bk12: 0a 5057i bk13: 0a 5057i bk14: 0a 5057i bk15: 0a 5057i 

------------------------------------------------------------------------

Row_Buffer_Locality = 1.000000
Row_Buffer_Locality_read = 1.000000
Row_Buffer_Locality_write = -nan
Bank_Level_Parallism = 1.000000
Bank_Level_Parallism_Col = 1.000000
Bank_Level_Parallism_Ready = 1.000000
write_to_read_ratio_blp_rw_average = 0.000000
GrpLevelPara = 1.000000 

BW Util details:
bwutil = 0.000395 
[...]
Row_Bus_Util =  0.055240 
CoL_Bus_Util = 0.067124 
Either_Row_CoL_Bus_Util = 0.114906 
Issued_on_Two_Bus_Simul_Util = 0.007459 
issued_two_Eff = 0.064911 
queue_avg = 0.954654 


dram_util_bins: 0 0 0 0 0 0 0 0 0 0
dram_eff_bins: 0 0 0 0 0 0 0 0 0 0
mrqq: max=64 avg=0.954654
Memory Partition 20: 
Cache L2_bank_040:
MSHR contents

Cache L2_bank_041:
MSHR contents

In Dram Latency Queue (total = 0): 
DRAM[20]: 16 bks, busW=16 BL=2 CL=12, tRRD=3 tCCD=1, tRCD=12 tRAS=28 tRP=12 tRC=40
n_cmd=1259080 n_nop=1115328 n_act=34267 n_pre=34251 n_ref_event=0 n_req=74340 n_rd=70877 n_rd_L2_A=0 n_write=0 n_wr_bk=13852 bw_util=0.06729
n_activity=756387 dram_eff=0.112
bk0: 4446a 1193901i bk1: 4460a 1193918i bk2: 4536a 1194788i bk3: 4536a 1190665i bk4: 4768a 1187485i bk5: 4756a 1186465i bk6: 4602a 1187556i bk7: 4537a 1183073i bk8: 4186a 1188400i bk9: 4201a 1186077i bk10: 4222a 1187471i bk11: 4201a 1187074i bk12: 4409a 1188219i bk13: 4420a 1182655i bk14: 4321a 1191013i bk15: 4276a 1189391i 

------------------------------------------------------------------------

Row_Buffer_Locality = 0.539050
Row_Buffer_Locality_read = 0.550545
Row_Buffer_Locality_write = 0.303783
Bank_Level_Parallism = 2.189848
Bank_Level_Parallism_Col = 1.847793
Bank_Level_Parallism_Ready = 1.499014
write_to_read_ratio_blp_rw_average = 0.088660
GrpLevelPara = 1.417975 

BW Util details:
bwutil = 0.067294 
total_CMD = 1259080 
util_bw = 84729 
Wasted_Col = 287527 
Wasted_Row = 176398 
Idle = 710426 

BW Util Bottlenecks: 
RCDc_limit = 328519 
RCDWRc_limit = 13131 
WTRc_limit = 23659 
RTWc_limit = 57177 
CCDLc_limit = 32510 
rwq = 0 
CCDLc_limit_alone = 26130 
WTRc_limit_alone = 21042 
RTWc_limit_alone = 53414 

Commands details: 
total_CMD = 1259080 
n_nop = 1115328 
Read = 70877 
Write = 0 
L2_Alloc = 0 
L2_WB = 13852 
n_act = 34267 
n_pre = 34251 
n_ref = 0 
n_req = 74340 
total_req = 84729 

Dual Bus Interface Util: 
issued_total_row = 68518 
issued_total_col = 84729 
Row_Bus_Util =  0.054419 
CoL_Bus_Util = 0.067294 
Either_Row_CoL_Bus_Util = 0.114172 
Issued_on_Two_Bus_Simul_Util = 0.007541 
issued_two_Eff = 0.066051 
queue_avg = 1.176872 


dram_util_bins: 0 0 0 0 0 0 0 0 0 0
dram_eff_bins: 0 0 0 0 0 0 0 0 0 0
mrqq: max=64 avg=1.17687
Memory Partition 21: 
Cache L2_bank_042:
MSHR contents

Cache L2_bank_043:
MSHR contents

In Dram Latency Queue (total = 0): 
DRAM[21]: 16 bks, busW=16 BL=2 CL=12, tRRD=3 tCCD=1, tRCD=12 tRAS=28 tRP=12 tRC=40
n_cmd=1259080 n_nop=1114939 n_act=34461 n_pre=34445 n_ref_event=0 n_req=74371 n_rd=70941 n_rd_L2_A=0 n_write=0 n_wr_bk=13720 bw_util=0.06724
n_activity=763652 dram_eff=0.1109
bk0: 4436a 1193491i bk1: 4492a 1193429i bk2: 4564a 1193601i bk3: 4572a 1191205i bk4: 4660a 1187406i bk5: 4748a 1189918i bk6: 4596a 1187930i bk7: 4508a 1188284i bk8: 4158a 1187414i bk9: 4164a 1187604i bk10: 4308a 1185118i bk11: 4256a 1186104i bk12: 4448a 1186928i bk13: 4469a 1187072i bk14: 4338a 1189955i bk15: 4224a 1191686i 

------------------------------------------------------------------------

Row_Buffer_Locality = 0.536634
Row_Buffer_Locality_read = 0.549612
Row_Buffer_Locality_write = 0.268222
Bank_Level_Parallism = 2.161613
Bank_Level_Parallism_Col = 1.808218
Bank_Level_Parallism_Ready = 1.437746
write_to_read_ratio_blp_rw_average = 0.089526
GrpLevelPara = 1.417407 

BW Util details:
bwutil = 0.067240 
total_CMD = 1259080 
util_bw = 84661 
Wasted_Col = 289213 
Wasted_Row = 177800 
Idle = 707406 

BW Util Bottlenecks: 
RCDc_limit = 329296 
RCDWRc_limit = 13641 
WTRc_limit = 25040 
RTWc_limit = 54820 
CCDLc_limit = 32745 
rwq = 0 
CCDLc_limit_alone = 26117 
WTRc_limit_alone = 21986 
RTWc_limit_alone = 51246 

Commands details: 
total_CMD = 1259080 
n_nop = 1114939 
Read = 70941 
Write = 0 
L2_Alloc = 0 
L2_WB = 13720 
n_act = 34461 
n_pre = 34445 
n_ref = 0 
n_req = 74371 
total_req = 84661 

Dual Bus Interface Util: 
issued_total_row = 68906 
issued_total_col = 84661 
Row_Bus_Util =  0.054727 
CoL_Bus_Util = 0.067240 
Either_Row_CoL_Bus_Util = 0.114481 
Issued_on_Two_Bus_Simul_Util = 0.007486 
issued_two_Eff = 0.065394 
queue_avg = 1.042857 


dram_util_bins: 0 0 0 0 0 0 0 0 0 0
dram_eff_bins: 0 0 0 0 0 0 0 0 0 0
mrqq: max=64 avg=1.04286
Memory Partition 22: 
Cache L2_bank_044:
MSHR contents

Cache L2_bank_045:
MSHR contents

In Dram Latency Queue (total = 0): 
DRAM[22]: 16 bks, busW=16 BL=2 CL=12, tRRD=3 tCCD=1, tRCD=12 tRAS=28 tRP=12 tRC=40
n_cmd=1259080 n_nop=1113645 n_act=35046 n_pre=35030 n_ref_event=0 n_req=74449 n_rd=70992 n_rd_L2_A=0 n_write=0 n_wr_bk=13828 bw_util=0.06737
n_activity=763439 dram_eff=0.1111
bk0: 4508a 1192006i bk1: 4484a 1190098i bk2: 4600a 1190920i bk3: 4589a 1192921i bk4: 4720a 1191763i bk5: 4728a 1187787i bk6: 4536a 1188299i bk7: 4504a 1189608i bk8: 4176a 1185720i bk9: 4168a 1186757i bk10: 4236a 1190153i bk11: 4284a 1188455i bk12: 4485a 1186572i bk13: 4446a 1187935i bk14: 4304a 1189820i bk15: 4224a 1191791i 

------------------------------------------------------------------------

Row_Buffer_Locality = 0.529262
Row_Buffer_Locality_read = 0.543864
Row_Buffer_Locality_write = 0.229390
Bank_Level_Parallism = 2.142504
Bank_Level_Parallism_Col = 1.754569
Bank_Level_Parallism_Ready = 1.361825
write_to_read_ratio_blp_rw_average = 0.092705
GrpLevelPara = 1.412943 

BW Util details:
bwutil = 0.067367 
total_CMD = 1259080 
util_bw = 84820 
Wasted_Col = 292414 
Wasted_Row = 177782 
Idle = 704064 

BW Util Bottlenecks: 
RCDc_limit = 333609 
RCDWRc_limit = 15615 
WTRc_limit = 25582 
RTWc_limit = 54109 
CCDLc_limit = 33475 
rwq = 0 
CCDLc_limit_alone = 27015 
WTRc_limit_alone = 22429 
RTWc_limit_alone = 50802 

Commands details: 
total_CMD = 1259080 
n_nop = 1113645 
Read = 70992 
Write = 0 
L2_Alloc = 0 
L2_WB = 13828 
n_act = 35046 
n_pre = 35030 
n_ref = 0 
n_req = 74449 
total_req = 84820 

Dual Bus Interface Util: 
issued_total_row = 70076 
issued_total_col = 84820 
Row_Bus_Util =  0.055657 
CoL_Bus_Util = 0.067367 
Either_Row_CoL_Bus_Util = 0.115509 
Issued_on_Two_Bus_Simul_Util = 0.007514 
issued_two_Eff = 0.065053 
queue_avg = 0.880153 


dram_util_bins: 0 0 0 0 0 0 0 0 0 0
dram_eff_bins: 0 0 0 0 0 0 0 0 0 0
mrqq: max=64 avg=0.880153
Memory Partition 23: 
Cache L2_bank_046:
MSHR contents

Cache L2_bank_047:
MSHR contents

In Dram Latency Queue (total = 0): 
DRAM[23]: 16 bks, busW=16 BL=2 CL=12, tRRD=3 tCCD=1, tRCD=12 tRAS=28 tRP=12 tRC=40
n_cmd=1259080 n_nop=1114034 n_act=34939 n_pre=34923 n_ref_event=0 n_req=73854 n_rd=70445 n_rd_L2_A=0 n_write=0 n_wr_bk=13626 bw_util=0.06677
n_activity=763099 dram_eff=0.1102
bk0: 4496a 1193577i bk1: 4460a 1195200i bk2: 4556a 1193535i bk3: 4540a 1190931i bk4: 4675a 1191376i bk5: 4720a 1190349i bk6: 4572a 1185883i bk7: 4520a 1189594i bk8: 4152a 1188367i bk9: 4152a 1188533i bk10: 4228a 1188580i bk11: 4144a 1190839i bk12: 4361a 1187347i bk13: 4317a 1188552i bk14: 4304a 1192738i bk15: 4248a 1189335i 

------------------------------------------------------------------------

Row_Buffer_Locality = 0.526918
Row_Buffer_Locality_read = 0.541827
Row_Buffer_Locality_write = 0.218833
Bank_Level_Parallism = 2.114109
Bank_Level_Parallism_Col = 1.723337
Bank_Level_Parallism_Ready = 1.316066
write_to_read_ratio_blp_rw_average = 0.096414
GrpLevelPara = 1.404698 

BW Util details:
bwutil = 0.066772 
total_CMD = 1259080 
util_bw = 84071 
Wasted_Col = 294195 
Wasted_Row = 177239 
Idle = 703575 

BW Util Bottlenecks: 
RCDc_limit = 334769 
RCDWRc_limit = 16112 
WTRc_limit = 27027 
RTWc_limit = 56291 
CCDLc_limit = 33900 
rwq = 0 
CCDLc_limit_alone = 27132 
WTRc_limit_alone = 23601 
RTWc_limit_alone = 52949 

Commands details: 
total_CMD = 1259080 
n_nop = 1114034 
Read = 70445 
Write = 0 
L2_Alloc = 0 
L2_WB = 13626 
n_act = 34939 
n_pre = 34923 
n_ref = 0 
n_req = 73854 
total_req = 84071 

Dual Bus Interface Util: 
issued_total_row = 69862 
issued_total_col = 84071 
Row_Bus_Util =  0.055487 
CoL_Bus_Util = 0.066772 
Either_Row_CoL_Bus_Util = 0.115200 
Issued_on_Two_Bus_Simul_Util = 0.007058 
issued_two_Eff = 0.061270 
queue_avg = 0.748906 


dram_util_bins: 0 0 0 0 0 0 0 0 0 0
dram_eff_bins: 0 0 0 0 0 0 0 0 0 0
mrqq: max=64 avg=0.748906

========= L2 cache stats =========
L2_cache_bank[0]: Access = 220936, Miss = 39106, Miss_rate = 0.177, Pending_hits = 151, Reservation_fails = 570
L2_cache_bank[1]: Access = 216229, Miss = 39205, Miss_rate = 0.181, Pending_hits = 196, Reservation_fails = 2340
L2_cache_bank[2]: Access = 224392, Miss = 39296, Miss_rate = 0.175, Pending_hits = 224, Reservation_fails = 2394
L2_cache_bank[3]: Access = 216138, Miss = 39327, Miss_rate = 0.182, Pending_hits = 223, Reservation_fails = 1895
L2_cache_bank[4]: Access = 217028, Miss = 39333, Miss_rate = 0.181, Pending_hits = 200, Reservation_fails = 1646
L2_cache_bank[5]: Access = 229468, Miss = 39230, Miss_rate = 0.171, Pending_hits = 200, Reservation_fails = 399
L2_cache_bank[6]: Access = 227044, Miss = 39109, Miss_rate = 0.172, Pending_hits = 212, Reservation_fails = 1766
L2_cache_bank[7]: Access = 216490, Miss = 39241, Miss_rate = 0.181, Pending_hits = 188, Reservation_fails = 1159
L2_cache_bank[8]: Access = 222650, Miss = 39244, Miss_rate = 0.176, Pending_hits = 225, Reservation_fails = 694
L2_cache_bank[9]: Access = 215438, Miss = 39248, Miss_rate = 0.182, Pending_hits = 192, Reservation_fails = 1626
L2_cache_bank[10]: Access = 220932, Miss = 39204, Miss_rate = 0.177, Pending_hits = 220, Reservation_fails = 582
L2_cache_bank[11]: Access = 216963, Miss = 39331, Miss_rate = 0.181, Pending_hits = 204, Reservation_fails = 3051
L2_cache_bank[12]: Access = 229212, Miss = 39174, Miss_rate = 0.171, Pending_hits = 179, Reservation_fails = 672
L2_cache_bank[13]: Access = 217200, Miss = 39174, Miss_rate = 0.180, Pending_hits = 163, Reservation_fails = 1021
L2_cache_bank[14]: Access = 244407, Miss = 39300, Miss_rate = 0.161, Pending_hits = 200, Reservation_fails = 91
L2_cache_bank[15]: Access = 211664, Miss = 39487, Miss_rate = 0.187, Pending_hits = 190, Reservation_fails = 263
L2_cache_bank[16]: Access = 225327, Miss = 39297, Miss_rate = 0.174, Pending_hits = 280, Reservation_fails = 3518
L2_cache_bank[17]: Access = 228375, Miss = 39365, Miss_rate = 0.172, Pending_hits = 199, Reservation_fails = 1419
L2_cache_bank[18]: Access = 223529, Miss = 39335, Miss_rate = 0.176, Pending_hits = 250, Reservation_fails = 3400
L2_cache_bank[19]: Access = 240434, Miss = 39594, Miss_rate = 0.165, Pending_hits = 264, Reservation_fails = 1283
L2_cache_bank[20]: Access = 212497, Miss = 39168, Miss_rate = 0.184, Pending_hits = 197, Reservation_fails = 1230
L2_cache_bank[21]: Access = 233766, Miss = 39465, Miss_rate = 0.169, Pending_hits = 293, Reservation_fails = 5554
L2_cache_bank[22]: Access = 221153, Miss = 39268, Miss_rate = 0.178, Pending_hits = 211, Reservation_fails = 1954
L2_cache_bank[23]: Access = 214590, Miss = 39071, Miss_rate = 0.182, Pending_hits = 207, Reservation_fails = 982
L2_cache_bank[24]: Access = 220398, Miss = 39141, Miss_rate = 0.178, Pending_hits = 234, Reservation_fails = 2793
L2_cache_bank[25]: Access = 217287, Miss = 39481, Miss_rate = 0.182, Pending_hits = 274, Reservation_fails = 3959
L2_cache_bank[26]: Access = 219925, Miss = 39349, Miss_rate = 0.179, Pending_hits = 243, Reservation_fails = 1449
L2_cache_bank[27]: Access = 227429, Miss = 39433, Miss_rate = 0.173, Pending_hits = 273, Reservation_fails = 1273
L2_cache_bank[28]: Access = 218667, Miss = 39300, Miss_rate = 0.180, Pending_hits = 189, Reservation_fails = 851
L2_cache_bank[29]: Access = 225250, Miss = 39349, Miss_rate = 0.175, Pending_hits = 177, Reservation_fails = 433
L2_cache_bank[30]: Access = 213576, Miss = 39250, Miss_rate = 0.184, Pending_hits = 209, Reservation_fails = 1377
L2_cache_bank[31]: Access = 219514, Miss = 39291, Miss_rate = 0.179, Pending_hits = 277, Reservation_fails = 2545
L2_cache_bank[32]: Access = 217448, Miss = 39106, Miss_rate = 0.180, Pending_hits = 159, Reservation_fails = 386
L2_cache_bank[33]: Access = 224140, Miss = 39245, Miss_rate = 0.175, Pending_hits = 207, Reservation_fails = 2753
L2_cache_bank[34]: Access = 216689, Miss = 39149, Miss_rate = 0.181, Pending_hits = 219, Reservation_fails = 4384
L2_cache_bank[35]: Access = 219683, Miss = 39234, Miss_rate = 0.179, Pending_hits = 242, Reservation_fails = 3024
L2_cache_bank[36]: Access = 217064, Miss = 39251, Miss_rate = 0.181, Pending_hits = 256, Reservation_fails = 765
L2_cache_bank[37]: Access = 215411, Miss = 38996, Miss_rate = 0.181, Pending_hits = 225, Reservation_fails = 1963
L2_cache_bank[38]: Access = 218980, Miss = 39236, Miss_rate = 0.179, Pending_hits = 189, Reservation_fails = 992
L2_cache_bank[39]: Access = 224116, Miss = 39290, Miss_rate = 0.175, Pending_hits = 238, Reservation_fails = 2139
L2_cache_bank[40]: Access = 231428, Miss = 39378, Miss_rate = 0.170, Pending_hits = 200, Reservation_fails = 758
L2_cache_bank[41]: Access = 221946, Miss = 39247, Miss_rate = 0.177, Pending_hits = 180, Reservation_fails = 1121
L2_cache_bank[42]: Access = 216611, Miss = 39320, Miss_rate = 0.182, Pending_hits = 172, Reservation_fails = 430
L2_cache_bank[43]: Access = 221939, Miss = 39257, Miss_rate = 0.177, Pending_hits = 251, Reservation_fails = 2223
L2_cache_bank[44]: Access = 217935, Miss = 39309, Miss_rate = 0.180, Pending_hits = 214, Reservation_fails = 2990
L2_cache_bank[45]: Access = 226865, Miss = 39215, Miss_rate = 0.173, Pending_hits = 149, Reservation_fails = 152
L2_cache_bank[46]: Access = 217730, Miss = 39192, Miss_rate = 0.180, Pending_hits = 200, Reservation_fails = 832
L2_cache_bank[47]: Access = 216283, Miss = 38993, Miss_rate = 0.180, Pending_hits = 185, Reservation_fails = 588
L2_total_cache_accesses = 10632176
L2_total_cache_misses = 1884584
L2_total_cache_miss_rate = 0.1773
L2_total_cache_pending_hits = 10230
L2_total_cache_reservation_fails = 79689
L2_total_cache_breakdown:
	L2_cache_stats_breakdown[GLOBAL_ACC_R][HIT] = 8469614
	L2_cache_stats_breakdown[GLOBAL_ACC_R][HIT_RESERVED] = 10140
	L2_cache_stats_breakdown[GLOBAL_ACC_R][MISS] = 454267
	L2_cache_stats_breakdown[GLOBAL_ACC_R][RESERVATION_FAIL] = 78807
	L2_cache_stats_breakdown[GLOBAL_ACC_R][SECTOR_MISS] = 1246507
	L2_cache_stats_breakdown[LOCAL_ACC_R][HIT] = 0
	L2_cache_stats_breakdown[LOCAL_ACC_R][HIT_RESERVED] = 0
	L2_cache_stats_breakdown[LOCAL_ACC_R][MISS] = 0
	L2_cache_stats_breakdown[LOCAL_ACC_R][RESERVATION_FAIL] = 0
	L2_cache_stats_breakdown[LOCAL_ACC_R][SECTOR_MISS] = 0
	L2_cache_stats_breakdown[CONST_ACC_R][HIT] = 152
	L2_cache_stats_breakdown[CONST_ACC_R][HIT_RESERVED] = 6
	L2_cache_stats_breakdown[CONST_ACC_R][MISS] = 1
	L2_cache_stats_breakdown[CONST_ACC_R][RESERVATION_FAIL] = 127
	L2_cache_stats_breakdown[CONST_ACC_R][SECTOR_MISS] = 1
	L2_cache_stats_breakdown[TEXTURE_ACC_R][HIT] = 0
	L2_cache_stats_breakdown[TEXTURE_ACC_R][HIT_RESERVED] = 0
	L2_cache_stats_breakdown[TEXTURE_ACC_R][MISS] = 0
	L2_cache_stats_breakdown[TEXTURE_ACC_R][RESERVATION_FAIL] = 0
	L2_cache_stats_breakdown[TEXTURE_ACC_R][SECTOR_MISS] = 0
	L2_cache_stats_breakdown[GLOBAL_ACC_W][HIT] = 264836
	L2_cache_stats_breakdown[GLOBAL_ACC_W][HIT_RESERVED] = 0
	L2_cache_stats_breakdown[GLOBAL_ACC_W][MISS] = 45943
	L2_cache_stats_breakdown[GLOBAL_ACC_W][RESERVATION_FAIL] = 0
	L2_cache_stats_breakdown[GLOBAL_ACC_W][SECTOR_MISS] = 137829
	L2_cache_stats_breakdown[LOCAL_ACC_W][HIT] = 0
	L2_cache_stats_breakdown[LOCAL_ACC_W][HIT_RESERVED] = 0
	L2_cache_stats_breakdown[LOCAL_ACC_W][MISS] = 0
	L2_cache_stats_breakdown[LOCAL_ACC_W][RESERVATION_FAIL] = 0
	L2_cache_stats_breakdown[LOCAL_ACC_W][SECTOR_MISS] = 0
	L2_cache_stats_breakdown[L1_WRBK_ACC][HIT] = 0
	L2_cache_stats_breakdown[L1_WRBK_ACC][HIT_RESERVED] = 0
	L2_cache_stats_breakdown[L1_WRBK_ACC][MISS] = 0
	L2_cache_stats_breakdown[L1_WRBK_ACC][RESERVATION_FAIL] = 0
	L2_cache_stats_breakdown[L1_WRBK_ACC][SECTOR_MISS] = 0
	L2_cache_stats_breakdown[L2_WRBK_ACC][HIT] = 0
	L2_cache_stats_breakdown[L2_WRBK_ACC][HIT_RESERVED] = 0
	L2_cache_stats_breakdown[L2_WRBK_ACC][MISS] = 0
	L2_cache_stats_breakdown[L2_WRBK_ACC][RESERVATION_FAIL] = 0
	L2_cache_stats_breakdown[L2_WRBK_ACC][SECTOR_MISS] = 0
	L2_cache_stats_breakdown[INST_ACC_R][HIT] = 2760
	L2_cache_stats_breakdown[INST_ACC_R][HIT_RESERVED] = 84
	L2_cache_stats_breakdown[INST_ACC_R][MISS] = 9
	L2_cache_stats_breakdown[INST_ACC_R][RESERVATION_FAIL] = 755
	L2_cache_stats_breakdown[INST_ACC_R][SECTOR_MISS] = 27
	L2_cache_stats_breakdown[L1_WR_ALLOC_R][HIT] = 0
	L2_cache_stats_breakdown[L1_WR_ALLOC_R][HIT_RESERVED] = 0
	L2_cache_stats_breakdown[L1_WR_ALLOC_R][MISS] = 0
	L2_cache_stats_breakdown[L1_WR_ALLOC_R][RESERVATION_FAIL] = 0
	L2_cache_stats_breakdown[L1_WR_ALLOC_R][SECTOR_MISS] = 0
	L2_cache_stats_breakdown[L2_WR_ALLOC_R][HIT] = 0
	L2_cache_stats_breakdown[L2_WR_ALLOC_R][HIT_RESERVED] = 0
	L2_cache_stats_breakdown[L2_WR_ALLOC_R][MISS] = 0
	L2_cache_stats_breakdown[L2_WR_ALLOC_R][RESERVATION_FAIL] = 0
	L2_cache_stats_breakdown[L2_WR_ALLOC_R][SECTOR_MISS] = 0
	L2_cache_stats_breakdown[GLOBAL_ACC_R][TOTAL_ACCESS] = 10180528
	L2_cache_stats_breakdown[CONST_ACC_R][TOTAL_ACCESS] = 160
	L2_cache_stats_breakdown[GLOBAL_ACC_W][TOTAL_ACCESS] = 448608
	L2_cache_stats_breakdown[INST_ACC_R][TOTAL_ACCESS] = 2880
L2_total_cache_reservation_fail_breakdown:
	L2_cache_stats_fail_breakdown[GLOBAL_ACC_R][MSHR_MERGE_ENRTY_FAIL] = 78807
	L2_cache_stats_fail_breakdown[CONST_ACC_R][MSHR_MERGE_ENRTY_FAIL] = 127
	L2_cache_stats_fail_breakdown[INST_ACC_R][MSHR_MERGE_ENRTY_FAIL] = 755
L2_cache_data_port_util = 0.102
L2_cache_fill_port_util = 0.020

icnt_total_pkts_mem_to_simt=10632176
icnt_total_pkts_simt_to_mem=10629936
LD_mem_lat_dist  0 0 0 0 0 0 0 0 0 0 0 0 0 0 0 0 0 0 0 0 0 0 0 0 0 0 0
ST_mem_lat_dist  0 0 0 0 0 0 0 0 0 0 0 0 0 0 0 0 0 0 0 0 0 0 0 0 0 0 0
----------------------------Interconnect-DETAILS--------------------------------
Class 0:
Packet latency average = 5.24539
	minimum = 5
	maximum = 35
Network latency average = 5.21674
	minimum = 5
	maximum = 35
Slowest packet = 21039226
Flit latency average = 5.21674
	minimum = 5
	maximum = 35
Slowest flit = 21039226
Fragmentation average = 0
	minimum = 0
	maximum = 0
Injected packet rate average = 0.282302
	minimum = 0.257836 (at node 50)
	maximum = 0.318972 (at node 6)
Accepted packet rate average = 0.282302
	minimum = 0.257836 (at node 50)
	maximum = 0.318972 (at node 6)
Injected flit rate average = 0.282302
	minimum = 0.257836 (at node 50)
	maximum = 0.318972 (at node 6)
Accepted flit rate average= 0.282302
	minimum = 0.257836 (at node 50)
	maximum = 0.318972 (at node 6)
Injected packet length average = 1
Accepted packet length average = 1
Total in-flight flits = 0 (0 measured)
====== Overall Traffic Statistics ======
====== Traffic class 0 ======
Packet latency average = 5.3243 (11 samples)
	minimum = 5 (11 samples)
	maximum = 59.5455 (11 samples)
Network latency average = 5.21375 (11 samples)
	minimum = 5 (11 samples)
	maximum = 59.0909 (11 samples)
Flit latency average = 5.21375 (11 samples)
	minimum = 5 (11 samples)
	maximum = 59.0909 (11 samples)
Fragmentation average = 0 (11 samples)
	minimum = 0 (11 samples)
	maximum = 0 (11 samples)
Injected packet rate average = 0.208307 (11 samples)
	minimum = 0.187693 (11 samples)
	maximum = 0.241977 (11 samples)
Accepted packet rate average = 0.208307 (11 samples)
	minimum = 0.187693 (11 samples)
	maximum = 0.242222 (11 samples)
Injected flit rate average = 0.208307 (11 samples)
	minimum = 0.187693 (11 samples)
	maximum = 0.241977 (11 samples)
Accepted flit rate average = 0.208307 (11 samples)
	minimum = 0.187693 (11 samples)
	maximum = 0.242222 (11 samples)
Injected packet size average = 1 (11 samples)
Accepted packet size average = 1 (11 samples)
Hops average = 1 (11 samples)
----------------------------END-of-Interconnect-DETAILS-------------------------


gpgpu_simulation_time = 0 days, 16 hrs, 56 min, 26 sec (60986 sec)
gpgpu_simulation_rate = 2694 (inst/sec)
gpgpu_simulation_rate = 29 (cycle/sec)
GPGPU-Sim: detected inactive GPU simulation thread
kernel time = 60983647.525787 ms
kernel + memcpy time = 60985859.413147 ms
GPGPU-Sim: *** exit detected ***
